<?xml version="1.0" encoding="UTF-8"?>

<!-- generated on 2025-12-27 13:25:18 by Eclipse SUMO netconvert Version 1.20.0
<configuration xmlns:xsi="http://www.w3.org/2001/XMLSchema-instance" xsi:noNamespaceSchemaLocation="http://sumo.dlr.de/xsd/netconvertConfiguration.xsd">

    <input>
        <sumo-net-file value="sumo/net/hk_irn_v3_patched.net.xml"/>
    </input>

    <output>
        <plain-output-prefix value="tmp/hk_plain"/>
        <output.street-names value="true"/>
    </output>

    <processing>
        <geometry.min-radius.fix.railways value="false"/>
        <geometry.max-grade.fix value="false"/>
        <offset.disable-normalization value="true"/>
        <lefthand value="0"/>
    </processing>

    <junctions>
        <no-turnarounds value="true"/>
        <junctions.corner-detail value="5"/>
        <junctions.limit-turn-speed value="5.50"/>
        <rectangular-lane-cut value="0"/>
    </junctions>

    <pedestrian>
        <walkingareas value="0"/>
    </pedestrian>

</configuration>
-->

<nodes version="1.20" xmlns:xsi="http://www.w3.org/2001/XMLSchema-instance" xsi:noNamespaceSchemaLocation="http://sumo.dlr.de/xsd/nodes_file.xsd">
    <location netOffset="-812340.81,-812121.37" convBoundary="0.00,0.00,26391.88,25098.54" origBoundary="812340.81,812121.37,838732.69,837219.91" projParameter="!"/>

    <node id="1" x="22432.40" y="2076.88" type="priority"/>
    <node id="10" x="23702.33" y="3377.42" type="priority"/>
    <node id="100" x="24792.17" y="1698.34" type="dead_end"/>
    <node id="1000" x="16750.61" y="11075.83" type="traffic_light" tl="1000"/>
    <node id="10000" x="17125.19" y="13453.72" type="priority"/>
    <node id="10002" x="17221.55" y="13336.46" type="traffic_light" tl="10002"/>
    <node id="10004" x="17098.34" y="13358.93" type="priority"/>
    <node id="10005" x="17121.60" y="13385.12" type="priority"/>
    <node id="10007" x="17162.03" y="13515.65" type="priority"/>
    <node id="10008" x="3537.69" y="15559.22" type="dead_end"/>
    <node id="1001" x="16790.14" y="11056.81" type="traffic_light" tl="1001"/>
    <node id="10012" x="17089.70" y="13367.12" type="priority"/>
    <node id="10013" x="17213.06" y="13312.03" type="priority"/>
    <node id="10014" x="17209.92" y="13306.19" type="traffic_light" tl="10014"/>
    <node id="10015" x="17215.71" y="13316.55" type="traffic_light" tl="10015"/>
    <node id="10017" x="23223.12" y="3651.38" type="priority"/>
    <node id="10018" x="23279.20" y="3647.77" type="traffic_light" tl="10018"/>
    <node id="10019" x="23297.50" y="3648.33" type="traffic_light" tl="10019"/>
    <node id="1002" x="11971.64" y="11315.68" type="traffic_light" tl="1002"/>
    <node id="10021" x="19112.00" y="2456.42" type="traffic_light" tl="10021"/>
    <node id="10023" x="19867.36" y="4125.39" type="priority"/>
    <node id="10024" x="19166.97" y="2650.90" type="traffic_light" tl="10024"/>
    <node id="10026" x="23565.10" y="3827.72" type="priority"/>
    <node id="10027" x="23919.61" y="3859.53" type="priority"/>
    <node id="10029" x="19609.23" y="9617.51" type="priority"/>
    <node id="1003" x="11990.24" y="11271.84" type="traffic_light" tl="1003"/>
    <node id="10030" x="19920.46" y="9449.84" type="priority"/>
    <node id="10033" x="18409.64" y="13783.02" type="traffic_light" tl="10033"/>
    <node id="10036" x="19663.44" y="9750.98" type="priority"/>
    <node id="1004" x="24860.75" y="3332.20" type="traffic_light" tl="1004"/>
    <node id="10040" x="4648.85" y="14341.95" type="dead_end"/>
    <node id="10041" x="18457.01" y="13824.23" type="priority"/>
    <node id="10042" x="19088.44" y="2475.29" type="priority"/>
    <node id="10044" x="18309.05" y="13729.01" type="priority"/>
    <node id="10045" x="19164.15" y="2376.04" type="traffic_light" tl="10045"/>
    <node id="10048" x="20049.24" y="4119.50" type="priority"/>
    <node id="10050" x="19148.36" y="2634.93" type="traffic_light" tl="10050"/>
    <node id="10052" x="20938.09" y="9296.32" type="priority"/>
    <node id="10053" x="25068.81" y="14813.10" type="priority"/>
    <node id="10054" x="25065.28" y="14828.95" type="priority"/>
    <node id="10055" x="25131.99" y="14904.41" type="priority"/>
    <node id="10056" x="24371.06" y="23160.54" type="priority"/>
    <node id="10058" x="3546.71" y="15092.16" type="dead_end"/>
    <node id="1006" x="13132.09" y="19360.29" type="priority"/>
    <node id="10060" x="19207.65" y="3439.69" type="traffic_light" tl="10060"/>
    <node id="10061" x="19149.00" y="3272.78" type="traffic_light" tl="10061"/>
    <node id="10062" x="19162.69" y="3265.97" type="traffic_light" tl="10062"/>
    <node id="10063" x="19638.73" y="4012.71" type="traffic_light" tl="10063"/>
    <node id="10064" x="19660.84" y="3993.92" type="traffic_light" tl="10064"/>
    <node id="10065" x="19721.56" y="1527.01" type="priority"/>
    <node id="10067" x="24759.10" y="14421.46" type="priority"/>
    <node id="10068" x="24764.48" y="14406.90" type="dead_end"/>
    <node id="10069" x="22979.96" y="5693.25" type="dead_end"/>
    <node id="1007" x="23456.95" y="1691.42" type="dead_end"/>
    <node id="10070" x="25023.24" y="7584.10" type="priority"/>
    <node id="10071" x="24968.58" y="7580.58" type="traffic_light" tl="10071"/>
    <node id="10072" x="25023.24" y="7584.10" type="priority"/>
    <node id="10073" x="24410.94" y="14369.46" type="dead_end"/>
    <node id="10074" x="24390.07" y="14392.48" type="traffic_light" tl="10074"/>
    <node id="10075" x="10276.59" y="6799.52" type="traffic_light" tl="10075"/>
    <node id="10076" x="10275.14" y="6811.30" type="traffic_light" tl="10076"/>
    <node id="10078" x="9586.18" y="7713.21" type="priority"/>
    <node id="10079" x="9603.08" y="7744.51" type="priority"/>
    <node id="1008" x="23445.42" y="1718.11" type="priority"/>
    <node id="10080" x="9610.31" y="6989.14" type="traffic_light" tl="10080"/>
    <node id="10081" x="9665.99" y="7826.79" type="priority"/>
    <node id="10084" x="9771.52" y="7983.93" type="traffic_light" tl="10084"/>
    <node id="10085" x="9599.81" y="6984.61" type="traffic_light" tl="10085"/>
    <node id="10086" x="9831.24" y="8307.79" type="traffic_light" tl="10086"/>
    <node id="10089" x="25212.37" y="8465.13" type="traffic_light" tl="10089"/>
    <node id="1009" x="21814.74" y="3149.71" type="dead_end"/>
    <node id="10090" x="25262.99" y="8441.27" type="traffic_light" tl="10090"/>
    <node id="10093" x="9736.64" y="7992.48" type="traffic_light" tl="10093"/>
    <node id="10095" x="9787.84" y="7948.63" type="traffic_light" tl="10095"/>
    <node id="10096" x="9775.26" y="7919.54" type="traffic_light" tl="10096"/>
    <node id="101" x="24810.89" y="1713.47" type="traffic_light" tl="101"/>
    <node id="1010" x="21752.48" y="3119.27" type="traffic_light" tl="1010"/>
    <node id="10100" x="23249.75" y="6969.57" type="priority"/>
    <node id="10101" x="23239.63" y="7025.23" type="priority"/>
    <node id="10103" x="23290.48" y="6814.83" type="priority"/>
    <node id="10104" x="23279.49" y="6812.56" type="dead_end"/>
    <node id="10105" x="19065.81" y="4126.44" type="traffic_light" tl="10105"/>
    <node id="10106" x="19149.49" y="4235.42" type="priority"/>
    <node id="10107" x="19157.55" y="4243.54" type="priority"/>
    <node id="10108" x="19335.84" y="4416.08" type="dead_end"/>
    <node id="10109" x="21646.39" y="4258.72" type="priority"/>
    <node id="1011" x="18697.07" y="3810.25" type="traffic_light" tl="1011"/>
    <node id="10110" x="21627.86" y="4269.82" type="priority"/>
    <node id="10111" x="21408.42" y="4360.57" type="priority"/>
    <node id="10113" x="19626.96" y="4109.90" type="priority"/>
    <node id="10114" x="19619.81" y="4078.29" type="dead_end"/>
    <node id="10115" x="23282.83" y="6840.34" type="priority"/>
    <node id="10116" x="22683.59" y="7091.97" type="priority"/>
    <node id="10117" x="22696.18" y="7076.63" type="traffic_light" tl="10117"/>
    <node id="10118" x="20473.86" y="4434.71" type="priority"/>
    <node id="10119" x="545.15" y="7505.18" type="traffic_light" tl="10119"/>
    <node id="1012" x="12972.08" y="13888.25" type="priority"/>
    <node id="10121" x="5946.21" y="13133.96" type="traffic_light" tl="10121"/>
    <node id="10122" x="594.80" y="7490.59" type="traffic_light" tl="10122"/>
    <node id="10123" x="604.16" y="7488.01" type="traffic_light" tl="10123"/>
    <node id="10124" x="559.70" y="7500.91" type="traffic_light" tl="10124"/>
    <node id="10125" x="470.12" y="7560.64" type="priority"/>
    <node id="10126" x="505.85" y="7527.05" type="priority"/>
    <node id="10129" x="5811.37" y="13317.55" type="priority"/>
    <node id="1013" x="12836.90" y="13974.19" type="priority"/>
    <node id="10130" x="5831.82" y="13337.08" type="dead_end"/>
    <node id="10132" x="19598.81" y="14810.32" type="priority"/>
    <node id="10138" x="23521.89" y="3736.12" type="priority"/>
    <node id="10139" x="23524.15" y="3715.45" type="dead_end"/>
    <node id="10140" x="20838.28" y="9663.62" type="traffic_light" tl="10140"/>
    <node id="10141" x="20868.04" y="9675.88" type="traffic_light" tl="10141"/>
    <node id="10142" x="23182.22" y="6744.42" type="priority"/>
    <node id="10145" x="24857.64" y="14599.35" type="priority"/>
    <node id="10149" x="9084.70" y="20664.94" type="priority"/>
    <node id="1015" x="24857.68" y="2347.40" type="priority"/>
    <node id="10152" x="18387.63" y="11506.44" type="traffic_light" tl="10152"/>
    <node id="10153" x="18283.34" y="11512.35" type="priority"/>
    <node id="10154" x="7220.57" y="12846.29" type="priority"/>
    <node id="10155" x="11952.52" y="13436.96" type="priority"/>
    <node id="10156" x="12175.16" y="13444.40" type="priority"/>
    <node id="10157" x="4710.93" y="14106.03" type="priority"/>
    <node id="10158" x="23646.25" y="3799.72" type="priority"/>
    <node id="1016" x="21893.54" y="4109.70" type="priority"/>
    <node id="10161" x="23300.16" y="3792.41" type="traffic_light" tl="10161"/>
    <node id="10162" x="23074.59" y="3806.54" type="priority"/>
    <node id="10165" x="21237.49" y="9495.53" type="priority"/>
    <node id="10166" x="21227.16" y="9538.28" type="priority"/>
    <node id="10168" x="21257.11" y="9498.43" type="priority"/>
    <node id="1017" x="20390.12" y="4044.22" type="priority"/>
    <node id="10170" x="21140.13" y="9724.47" type="priority"/>
    <node id="10171" x="21219.06" y="9562.70" type="priority"/>
    <node id="10172" x="22107.21" y="10467.18" type="traffic_light" tl="10172"/>
    <node id="10173" x="21618.86" y="10496.59" type="traffic_light" tl="10173"/>
    <node id="10175" x="22384.31" y="8570.52" type="traffic_light" tl="10175"/>
    <node id="10179" x="3513.28" y="18445.78" type="priority"/>
    <node id="1018" x="20390.58" y="4048.92" type="priority"/>
    <node id="10180" x="3563.10" y="18419.04" type="priority"/>
    <node id="10181" x="22452.73" y="8548.08" type="priority"/>
    <node id="10182" x="2638.44" y="17172.29" type="priority"/>
    <node id="10183" x="3509.67" y="18058.69" type="priority"/>
    <node id="10184" x="21970.64" y="8909.15" type="priority"/>
    <node id="10185" x="22701.31" y="8281.82" type="priority"/>
    <node id="10186" x="21744.68" y="9092.04" type="priority"/>
    <node id="10187" x="21834.15" y="10576.09" type="traffic_light" tl="10187"/>
    <node id="1019" x="23125.47" y="23004.97" type="priority"/>
    <node id="10190" x="22114.92" y="10474.13" type="priority"/>
    <node id="10191" x="21871.04" y="10566.88" type="traffic_light" tl="10191"/>
    <node id="10192" x="22529.80" y="8528.70" type="priority"/>
    <node id="10193" x="22662.37" y="8320.35" type="priority"/>
    <node id="10194" x="22663.10" y="8307.84" type="priority"/>
    <node id="10195" x="22577.88" y="8394.77" type="priority"/>
    <node id="10196" x="22484.24" y="8473.95" type="priority"/>
    <node id="10197" x="21988.44" y="8857.39" type="priority"/>
    <node id="10198" x="22881.90" y="7474.56" type="priority"/>
    <node id="10199" x="1116.72" y="8082.07" type="priority"/>
    <node id="102" x="22394.43" y="3745.96" type="traffic_light" tl="102"/>
    <node id="1020" x="23109.10" y="23016.98" type="priority"/>
    <node id="10200" x="22436.88" y="8514.60" type="priority"/>
    <node id="10202" x="21365.00" y="4108.79" type="priority"/>
    <node id="10203" x="21359.33" y="4141.13" type="priority"/>
    <node id="10206" x="21872.29" y="22598.54" type="priority"/>
    <node id="10207" x="21885.32" y="22691.83" type="priority"/>
    <node id="10208" x="18942.54" y="21588.79" type="priority"/>
    <node id="10209" x="19240.56" y="21816.90" type="priority"/>
    <node id="1021" x="9538.46" y="7229.97" type="priority"/>
    <node id="10210" x="18842.50" y="21729.49" type="priority"/>
    <node id="10211" x="18818.76" y="21726.64" type="dead_end"/>
    <node id="10214" x="20537.58" y="22367.16" type="dead_end"/>
    <node id="10215" x="20286.12" y="22491.78" type="priority"/>
    <node id="10218" x="25256.09" y="8490.53" type="traffic_light" tl="10218"/>
    <node id="10219" x="25381.30" y="8433.02" type="priority"/>
    <node id="1022" x="9550.93" y="7232.41" type="traffic_light" tl="1022"/>
    <node id="10220" x="25256.92" y="8861.44" type="priority"/>
    <node id="10221" x="22950.79" y="8724.50" type="priority"/>
    <node id="10225" x="2045.80" y="14739.19" type="priority"/>
    <node id="10226" x="2056.10" y="14740.73" type="priority"/>
    <node id="10228" x="2059.75" y="14731.53" type="priority"/>
    <node id="10229" x="3559.33" y="18433.93" type="priority"/>
    <node id="1023" x="663.94" y="4972.95" type="traffic_light" tl="1023"/>
    <node id="10230" x="3509.57" y="18047.11" type="priority"/>
    <node id="10231" x="8809.14" y="22501.06" type="priority"/>
    <node id="10232" x="8816.75" y="22511.78" type="dead_end"/>
    <node id="10233" x="23141.63" y="8327.40" type="priority"/>
    <node id="10234" x="23137.85" y="8350.77" type="priority"/>
    <node id="10236" x="2618.08" y="17151.33" type="priority"/>
    <node id="10238" x="20276.87" y="22229.89" type="dead_end"/>
    <node id="10239" x="24130.40" y="9593.19" type="traffic_light" tl="10239"/>
    <node id="1024" x="669.06" y="4968.16" type="traffic_light" tl="1024"/>
    <node id="10240" x="18044.70" y="12644.74" type="traffic_light" tl="10240"/>
    <node id="10241" x="24546.43" y="2454.86" type="traffic_light" tl="10241"/>
    <node id="10242" x="2036.63" y="14748.84" type="dead_end"/>
    <node id="10243" x="21875.95" y="8987.79" type="priority"/>
    <node id="10245" x="21589.50" y="9202.34" type="priority"/>
    <node id="10246" x="21400.63" y="9360.71" type="priority"/>
    <node id="10247" x="22919.68" y="10383.25" type="traffic_light" tl="10247"/>
    <node id="10248" x="23456.90" y="10545.22" type="traffic_light" tl="10248"/>
    <node id="10250" x="24096.27" y="7703.50" type="priority"/>
    <node id="10251" x="24099.73" y="7713.11" type="priority"/>
    <node id="10252" x="21968.41" y="8906.45" type="priority"/>
    <node id="10253" x="22396.65" y="8146.55" type="traffic_light" tl="10253"/>
    <node id="10254" x="23672.69" y="3637.71" type="traffic_light" tl="10254"/>
    <node id="10256" x="23672.92" y="3635.13" type="priority"/>
    <node id="10257" x="23662.90" y="3623.62" type="traffic_light" tl="10257"/>
    <node id="10258" x="2726.08" y="6119.87" type="priority"/>
    <node id="10259" x="4338.83" y="6704.61" type="priority"/>
    <node id="10260" x="2398.56" y="6313.35" type="priority"/>
    <node id="10261" x="1720.22" y="5480.51" type="priority"/>
    <node id="10262" x="19022.71" y="14398.19" type="priority"/>
    <node id="10263" x="18982.54" y="14425.93" type="dead_end"/>
    <node id="10264" x="19009.28" y="14382.56" type="dead_end"/>
    <node id="10265" x="18795.21" y="14060.35" type="dead_end"/>
    <node id="10266" x="18450.49" y="13832.22" type="dead_end"/>
    <node id="10267" x="18318.04" y="13740.04" type="dead_end"/>
    <node id="10268" x="21386.86" y="9372.73" type="priority"/>
    <node id="10269" x="21394.78" y="9365.82" type="priority"/>
    <node id="1027" x="23698.47" y="3539.61" type="traffic_light" tl="1027"/>
    <node id="10270" x="21307.44" y="9427.12" type="priority"/>
    <node id="10271" x="21214.93" y="9539.13" type="priority"/>
    <node id="10272" x="18000.60" y="13821.11" type="traffic_light" tl="10272"/>
    <node id="10273" x="17959.30" y="13816.70" type="priority"/>
    <node id="10274" x="17930.68" y="13829.35" type="priority"/>
    <node id="10275" x="17923.58" y="13811.69" type="priority"/>
    <node id="10276" x="17990.24" y="13801.28" type="priority"/>
    <node id="10277" x="17341.93" y="14191.81" type="dead_end"/>
    <node id="10278" x="17348.29" y="14210.33" type="priority"/>
    <node id="10279" x="17405.99" y="14175.64" type="priority"/>
    <node id="1028" x="23668.40" y="3535.91" type="traffic_light" tl="1028"/>
    <node id="10280" x="17400.46" y="14161.21" type="dead_end"/>
    <node id="10281" x="23566.82" y="5450.16" type="priority"/>
    <node id="10282" x="3798.23" y="11.98" type="dead_end"/>
    <node id="10283" x="23594.49" y="5453.64" type="traffic_light" tl="10283"/>
    <node id="10284" x="23565.42" y="5461.25" type="dead_end"/>
    <node id="10285" x="8047.48" y="22410.28" type="priority"/>
    <node id="10286" x="2512.68" y="6227.00" type="priority"/>
    <node id="10287" x="1699.12" y="6747.25" type="priority"/>
    <node id="10289" x="1344.85" y="6950.55" type="priority"/>
    <node id="1029" x="23246.81" y="3236.35" type="traffic_light" tl="1029"/>
    <node id="10290" x="1087.10" y="7039.99" type="priority"/>
    <node id="10291" x="1500.65" y="7020.41" type="priority"/>
    <node id="10292" x="1757.05" y="6730.09" type="priority"/>
    <node id="10293" x="1156.72" y="7124.41" type="priority"/>
    <node id="10294" x="1204.58" y="7139.98" type="traffic_light" tl="10294"/>
    <node id="10296" x="17268.23" y="13394.17" type="traffic_light" tl="10296"/>
    <node id="10297" x="17230.48" y="13330.17" type="traffic_light" tl="10297"/>
    <node id="10299" x="1490.90" y="7306.47" type="priority"/>
    <node id="103" x="24267.05" y="3090.00" type="traffic_light" tl="103"/>
    <node id="1030" x="24999.82" y="1611.02" type="priority"/>
    <node id="10300" x="1516.24" y="7374.10" type="priority"/>
    <node id="10302" x="1368.77" y="7142.69" type="priority"/>
    <node id="10303" x="1541.54" y="7429.23" type="priority"/>
    <node id="10305" x="374.29" y="12838.70" type="priority"/>
    <node id="10306" x="21344.91" y="8792.54" type="priority"/>
    <node id="10307" x="21250.50" y="8854.73" type="priority"/>
    <node id="10308" x="20289.73" y="9084.37" type="traffic_light" tl="10308"/>
    <node id="1031" x="24958.39" y="1637.17" type="traffic_light" tl="1031"/>
    <node id="10310" x="821.65" y="5470.68" type="priority"/>
    <node id="10315" x="824.22" y="5452.46" type="dead_end"/>
    <node id="10316" x="20202.31" y="9010.27" type="traffic_light" tl="10316"/>
    <node id="10317" x="20633.33" y="9295.90" type="traffic_light" tl="10317"/>
    <node id="10318" x="20623.78" y="9250.13" type="traffic_light" tl="10318"/>
    <node id="1032" x="24353.30" y="3169.11" type="priority"/>
    <node id="10321" x="25343.66" y="10543.97" type="priority"/>
    <node id="10322" x="25269.13" y="10575.05" type="traffic_light" tl="10322"/>
    <node id="10323" x="24060.52" y="6441.76" type="traffic_light" tl="10323"/>
    <node id="10324" x="24099.78" y="6425.26" type="priority"/>
    <node id="10326" x="23803.80" y="21884.99" type="priority"/>
    <node id="10327" x="21360.36" y="22718.49" type="priority"/>
    <node id="10329" x="23317.67" y="21415.31" type="priority"/>
    <node id="1033" x="24363.14" y="3217.20" type="traffic_light" tl="1033"/>
    <node id="10330" x="23298.54" y="21476.90" type="priority"/>
    <node id="10331" x="23049.54" y="20726.07" type="dead_end"/>
    <node id="10332" x="23846.07" y="21789.79" type="priority"/>
    <node id="10333" x="23271.59" y="21537.77" type="priority"/>
    <node id="10334" x="23781.28" y="21960.84" type="priority"/>
    <node id="10335" x="23237.81" y="21578.99" type="traffic_light" tl="10335"/>
    <node id="10336" x="21493.76" y="22627.49" type="priority"/>
    <node id="10337" x="23940.00" y="21794.48" type="priority"/>
    <node id="10339" x="23748.07" y="21934.94" type="traffic_light" tl="10339"/>
    <node id="1034" x="3823.97" y="14850.31" type="priority"/>
    <node id="10340" x="426.41" y="13532.52" type="priority"/>
    <node id="10342" x="546.11" y="13709.64" type="traffic_light" tl="10342"/>
    <node id="10343" x="825.43" y="13812.30" type="traffic_light" tl="10343"/>
    <node id="10345" x="857.68" y="13751.18" type="traffic_light" tl="10345"/>
    <node id="10346" x="746.83" y="13737.28" type="traffic_light" tl="10346"/>
    <node id="10347" x="678.46" y="13668.70" type="traffic_light" tl="10347"/>
    <node id="10348" x="367.10" y="13333.85" type="priority"/>
    <node id="10349" x="387.27" y="12844.21" type="priority"/>
    <node id="10351" x="1541.75" y="7373.67" type="priority"/>
    <node id="10352" x="1528.10" y="7306.28" type="priority"/>
    <node id="10354" x="1493.61" y="7163.25" type="priority"/>
    <node id="10355" x="1273.88" y="7011.03" type="priority"/>
    <node id="10365" x="677.98" y="7257.48" type="priority"/>
    <node id="10366" x="20465.46" y="9097.01" type="priority"/>
    <node id="10369" x="20593.48" y="9592.00" type="traffic_light" tl="10369"/>
    <node id="10370" x="20443.24" y="9206.06" type="traffic_light" tl="10370"/>
    <node id="10373" x="20665.46" y="9649.39" type="traffic_light" tl="10373"/>
    <node id="10374" x="20625.52" y="9273.51" type="traffic_light" tl="10374"/>
    <node id="10376" x="20575.61" y="9154.04" type="traffic_light" tl="10376"/>
    <node id="10377" x="20373.88" y="9339.77" type="priority"/>
    <node id="10378" x="21466.79" y="8683.94" type="priority"/>
    <node id="10379" x="21030.50" y="8996.78" type="priority"/>
    <node id="1038" x="20900.93" y="3951.88" type="priority"/>
    <node id="10380" x="22063.35" y="7934.37" type="priority"/>
    <node id="10382" x="22256.05" y="7191.80" type="priority"/>
    <node id="10383" x="22269.93" y="7300.08" type="priority"/>
    <node id="10384" x="20478.62" y="9219.70" type="priority"/>
    <node id="10385" x="20484.33" y="9259.72" type="traffic_light" tl="10385"/>
    <node id="10387" x="22376.94" y="7324.71" type="traffic_light" tl="10387"/>
    <node id="10389" x="22058.53" y="8113.77" type="traffic_light" tl="10389"/>
    <node id="1039" x="20914.55" y="3936.16" type="traffic_light" tl="1039"/>
    <node id="10390" x="22103.97" y="8031.87" type="priority"/>
    <node id="10391" x="20489.17" y="9296.12" type="priority"/>
    <node id="10393" x="22040.65" y="8177.63" type="priority"/>
    <node id="10394" x="25207.55" y="10579.21" type="traffic_light" tl="10394"/>
    <node id="10396" x="20604.31" y="9670.49" type="priority"/>
    <node id="10399" x="22536.46" y="6828.66" type="traffic_light" tl="10399"/>
    <node id="10400" x="21320.50" y="8863.21" type="priority"/>
    <node id="10401" x="21271.94" y="8851.85" type="priority"/>
    <node id="10402" x="21349.14" y="8878.66" type="traffic_light" tl="10402"/>
    <node id="10404" x="21344.66" y="8841.76" type="priority"/>
    <node id="10405" x="25148.57" y="1615.92" type="traffic_light" tl="10405"/>
    <node id="1041" x="23686.01" y="3581.85" type="priority"/>
    <node id="10410" x="20787.17" y="10826.54" type="priority"/>
    <node id="10411" x="20870.09" y="10907.45" type="priority"/>
    <node id="10412" x="20864.50" y="10879.30" type="traffic_light" tl="10412"/>
    <node id="10413" x="20821.88" y="10838.98" type="traffic_light" tl="10413"/>
    <node id="10414" x="22448.37" y="12222.00" type="priority"/>
    <node id="10416" x="24751.43" y="14495.46" type="priority"/>
    <node id="10417" x="24901.76" y="14698.28" type="priority"/>
    <node id="10418" x="23833.02" y="14115.61" type="traffic_light" tl="10418"/>
    <node id="10419" x="23683.30" y="13699.64" type="priority"/>
    <node id="1042" x="21475.54" y="4423.62" type="priority"/>
    <node id="10420" x="24929.52" y="14722.92" type="priority"/>
    <node id="10421" x="23804.17" y="14261.80" type="traffic_light" tl="10421"/>
    <node id="10422" x="22492.29" y="12382.72" type="traffic_light" tl="10422"/>
    <node id="10423" x="22538.76" y="12530.53" type="traffic_light" tl="10423"/>
    <node id="10429" x="9431.25" y="21829.87" type="traffic_light" tl="10429"/>
    <node id="1043" x="24205.02" y="3415.08" type="traffic_light" tl="1043"/>
    <node id="10430" x="9433.64" y="21880.31" type="traffic_light" tl="10430"/>
    <node id="10431" x="23330.30" y="13190.88" type="traffic_light" tl="10431"/>
    <node id="10432" x="23289.81" y="13163.69" type="traffic_light" tl="10432"/>
    <node id="10433" x="23743.06" y="13828.06" type="traffic_light" tl="10433"/>
    <node id="10434" x="17278.60" y="13416.98" type="traffic_light" tl="10434"/>
    <node id="10436" x="24129.20" y="14320.51" type="traffic_light" tl="10436"/>
    <node id="10437" x="24037.11" y="14314.67" type="traffic_light" tl="10437"/>
    <node id="10438" x="24354.33" y="14371.62" type="priority"/>
    <node id="10439" x="23766.91" y="13967.85" type="traffic_light" tl="10439"/>
    <node id="1044" x="20875.50" y="9237.78" type="priority"/>
    <node id="10440" x="23788.35" y="14041.05" type="traffic_light" tl="10440"/>
    <node id="10442" x="22825.09" y="3198.32" type="dead_end"/>
    <node id="10444" x="24886.63" y="14646.01" type="priority"/>
    <node id="10448" x="10720.39" y="22401.10" type="priority"/>
    <node id="10449" x="10686.11" y="22547.44" type="traffic_light" tl="10449"/>
    <node id="1045" x="20933.27" y="9300.02" type="priority"/>
    <node id="10450" x="21471.63" y="4328.79" type="traffic_light" tl="10450"/>
    <node id="10451" x="21464.97" y="4335.89" type="traffic_light" tl="10451"/>
    <node id="10452" x="22967.19" y="8534.11" type="priority"/>
    <node id="10453" x="22947.16" y="8583.67" type="priority"/>
    <node id="10454" x="23432.21" y="14304.31" type="priority"/>
    <node id="10455" x="19657.41" y="14401.88" type="priority"/>
    <node id="10457" x="23527.74" y="7562.03" type="priority"/>
    <node id="10458" x="23522.00" y="7566.14" type="dead_end"/>
    <node id="10459" x="3199.19" y="16139.74" type="dead_end"/>
    <node id="1046" x="20800.71" y="9831.65" type="traffic_light" tl="1046"/>
    <node id="10460" x="19802.58" y="14832.39" type="traffic_light" tl="10460"/>
    <node id="10462" x="23735.59" y="13107.01" type="priority"/>
    <node id="10463" x="23766.36" y="13143.88" type="dead_end"/>
    <node id="10464" x="23681.05" y="13156.49" type="dead_end"/>
    <node id="10466" x="23274.96" y="13185.90" type="traffic_light" tl="10466"/>
    <node id="10467" x="23215.94" y="13153.97" type="traffic_light" tl="10467"/>
    <node id="1047" x="21089.05" y="9951.54" type="priority"/>
    <node id="10470" x="23181.48" y="6246.23" type="priority"/>
    <node id="10473" x="1902.61" y="15097.95" type="priority"/>
    <node id="10478" x="23255.11" y="6650.99" type="priority"/>
    <node id="10479" x="23223.76" y="6515.55" type="priority"/>
    <node id="1048" x="21183.98" y="10101.51" type="traffic_light" tl="1048"/>
    <node id="10480" x="23205.02" y="6447.53" type="priority"/>
    <node id="10481" x="24636.94" y="6190.96" type="priority"/>
    <node id="10482" x="24645.64" y="6176.49" type="dead_end"/>
    <node id="10483" x="24486.92" y="6422.52" type="dead_end"/>
    <node id="10484" x="24348.29" y="6813.99" type="priority"/>
    <node id="10485" x="24455.99" y="6790.98" type="priority"/>
    <node id="10486" x="23065.27" y="3806.70" type="traffic_light" tl="10486"/>
    <node id="10487" x="23067.68" y="3829.66" type="traffic_light" tl="10487"/>
    <node id="10488" x="25201.50" y="8853.51" type="priority"/>
    <node id="10489" x="24199.20" y="6958.39" type="priority"/>
    <node id="10491" x="25265.63" y="4439.98" type="priority"/>
    <node id="10492" x="2154.97" y="16537.76" type="priority"/>
    <node id="10493" x="2148.55" y="16548.60" type="priority"/>
    <node id="10495" x="24059.52" y="8172.16" type="traffic_light" tl="10495"/>
    <node id="10496" x="24068.62" y="8176.76" type="traffic_light" tl="10496"/>
    <node id="10497" x="24039.09" y="8163.32" type="traffic_light" tl="10497"/>
    <node id="10498" x="5811.96" y="1752.14" type="priority"/>
    <node id="10499" x="704.14" y="5013.24" type="priority"/>
    <node id="105" x="22109.71" y="3741.73" type="traffic_light" tl="105"/>
    <node id="10500" x="709.22" y="5008.84" type="traffic_light" tl="10500"/>
    <node id="10501" x="832.85" y="5011.70" type="dead_end"/>
    <node id="10502" x="5757.64" y="1689.26" type="priority"/>
    <node id="10503" x="5727.37" y="1683.23" type="priority"/>
    <node id="10504" x="5742.19" y="1666.08" type="dead_end"/>
    <node id="10505" x="5686.31" y="1721.96" type="dead_end"/>
    <node id="10508" x="6959.28" y="6774.98" type="dead_end"/>
    <node id="1051" x="5026.77" y="20216.42" type="traffic_light" tl="1051"/>
    <node id="10510" x="7351.94" y="6751.53" type="priority"/>
    <node id="10511" x="6958.54" y="6700.87" type="priority"/>
    <node id="10512" x="6973.01" y="6680.85" type="dead_end"/>
    <node id="10514" x="6779.73" y="6178.36" type="priority"/>
    <node id="10515" x="7362.43" y="6736.47" type="priority"/>
    <node id="10516" x="7367.86" y="6757.15" type="priority"/>
    <node id="10517" x="7378.84" y="6768.45" type="dead_end"/>
    <node id="10518" x="7480.60" y="5209.59" type="priority"/>
    <node id="10519" x="7524.78" y="5225.48" type="priority"/>
    <node id="10520" x="7778.71" y="5192.34" type="priority"/>
    <node id="10521" x="7988.20" y="5011.09" type="dead_end"/>
    <node id="10522" x="10816.34" y="22653.88" type="priority"/>