<?xml version='1.0' encoding='utf-8'?>
<edges>
    <edge id="272309_rev" from="1871" to="1833" priority="6" numLanes="2" speed="13.89">
        <lane index="0" speed="13.89" length="249.76" shape="21338.20,10054.81 21326.49,10051.60 21311.47,10045.78 21215.94,10010.94 21116.64,9974.70 21113.23,9971.49 21104.50,9967.91" />
    </edge>
</edges>