<?xml version='1.0' encoding='utf-8'?>
<connections>
    <!-- Connections to 272309_rev from edges entering node 1871 -->
    <!-- 9623 (只有1条车道) 连到 272309_rev lane 0 -->
    <connection from="9623" to="272309_rev" fromLane="0" toLane="0"/>
    
    <!-- 8000_rev (2条车道) 连到 272309_rev -->
    <connection from="8000_rev" to="272309_rev" fromLane="0" toLane="0"/>
    <connection from="8000_rev" to="272309_rev" fromLane="1" toLane="1"/>
</connections>

