<additional>
    <busStop id="EC19750840FFEDDC" name="Unknown" lane="edge_inbound_0_0" startPos="0.004256045800792481" endPos="15.004256045800792" friendlyPos="true" lines="68X"/>
    <busStop id="B76B249D3D253008" name="Unknown" lane="edge_inbound_0_0" startPos="335.9444744671353" endPos="350.9444744671353" friendlyPos="true" lines="68X"/>
    <busStop id="A7F35DC09E1A1528" name="Unknown" lane="edge_inbound_1_0" startPos="116.04033781405498" endPos="131.04033781405496" friendlyPos="true" lines="68X"/>
    <busStop id="D242B538BA760551" name="Unknown" lane="edge_inbound_2_0" startPos="413.0202484140478" endPos="428.0202484140478" friendlyPos="true" lines="68X"/>
    <busStop id="11ED493F674F4888" name="Unknown" lane="edge_inbound_3_0" startPos="246.688726992135" endPos="261.688726992135" friendlyPos="true" lines="68X"/>
    <busStop id="BA765A2BCCE21F5C" name="Unknown" lane="edge_inbound_4_0" startPos="459.5692778297934" endPos="474.5692778297934" friendlyPos="true" lines="68X"/>
    <busStop id="BE510511B0A7344E" name="Unknown" lane="edge_inbound_5_0" startPos="333.4080654768276" endPos="348.4080654768276" friendlyPos="true" lines="68X"/>
    <busStop id="BE1A19A3705F5B70" name="Unknown" lane="edge_inbound_6_0" startPos="204.79906500030808" endPos="219.79906500030808" friendlyPos="true" lines="68X"/>
    <busStop id="95731C2B3563CF5E" name="Unknown" lane="edge_inbound_7_0" startPos="437.2894027986492" endPos="452.2894027986492" friendlyPos="true" lines="68X"/>
    <busStop id="4AFCFC726ADBD5F7" name="Unknown" lane="edge_inbound_8_0" startPos="418.66095622929714" endPos="433.66095622929714" friendlyPos="true" lines="68X"/>
    <busStop id="DD9DF46F3BA040EE" name="Unknown" lane="edge_inbound_10_0" startPos="0.0" endPos="15.0" friendlyPos="true" lines="68X"/>
    <busStop id="B7C0A83790F94D99" name="Unknown" lane="edge_inbound_10_0" startPos="503.5619828445945" endPos="518.5619828445945" friendlyPos="true" lines="68X"/>
    <busStop id="06566A7FE3C6466A" name="Unknown" lane="edge_inbound_11_0" startPos="489.0069939428272" endPos="504.0069939428272" friendlyPos="true" lines="68X"/>
    <busStop id="7DD772B7D55C54B2" name="Unknown" lane="edge_inbound_12_0" startPos="641.9238015722738" endPos="656.9238015722738" friendlyPos="true" lines="68X"/>
    <busStop id="62742CFBA2BE9854" name="Unknown" lane="edge_inbound_13_0" startPos="1107.6944214222626" endPos="1122.6944214222626" friendlyPos="true" lines="68X"/>
    <busStop id="E55FA660A59AB64A" name="Unknown" lane="edge_inbound_14_0" startPos="11273.631840184644" endPos="11288.631840184644" friendlyPos="true" lines="68X"/>
    <busStop id="E481F7170B1F6FC3" name="Unknown" lane="edge_inbound_14_0" startPos="11273.631840184644" endPos="11288.631840184644" friendlyPos="true" lines="68X"/>
    <busStop id="14157BA5C06B0B6B" name="Unknown" lane="edge_inbound_16_0" startPos="3965.8725974997064" endPos="3980.8725974997064" friendlyPos="true" lines="68X"/>
    <busStop id="F63C4B8B958E9830" name="Unknown" lane="edge_inbound_17_0" startPos="360.46808957243366" endPos="375.46808957243366" friendlyPos="true" lines="68X"/>
    <busStop id="74C51A8A3D783F40" name="Unknown" lane="edge_inbound_18_0" startPos="323.319462528936" endPos="338.319462528936" friendlyPos="true" lines="68X"/>
    <busStop id="0E2B8E1D544C6889" name="Unknown" lane="edge_inbound_19_0" startPos="398.4807471196066" endPos="413.4807471196066" friendlyPos="true" lines="68X"/>
    <busStop id="A010FE2C473103A8" name="Unknown" lane="edge_inbound_20_0" startPos="268.7512434330118" endPos="283.7512434330118" friendlyPos="true" lines="68X"/>
    <busStop id="70FEB409760C77EE" name="Unknown" lane="edge_inbound_21_0" startPos="257.9308608230531" endPos="272.9308608230531" friendlyPos="true" lines="68X"/>
    <busStop id="A1A1B10F5CE291AC" name="Unknown" lane="edge_inbound_22_0" startPos="472.54937133369066" endPos="487.54937133369066" friendlyPos="true" lines="68X"/>
    <busStop id="A2C36DF7152EE93F" name="Unknown" lane="edge_inbound_23_0" startPos="440.3290005841025" endPos="455.3290005841025" friendlyPos="true" lines="68X"/>
    <busStop id="60A4F4A41CD61FAC" name="Unknown" lane="edge_inbound_24_0" startPos="332.01645294322435" endPos="347.01645294322435" friendlyPos="true" lines="68X"/>
    <busStop id="8F6C8CEB9F17D97D" name="Unknown" lane="edge_inbound_25_0" startPos="262.67045713212707" endPos="277.67045713212707" friendlyPos="true" lines="68X"/>
    <busStop id="B09E18636F184247" name="Unknown" lane="edge_inbound_26_0" startPos="438.34765848007197" endPos="453.34765848007197" friendlyPos="true" lines="68X"/>
    <busStop id="B113E1371D5AC497" name="Unknown" lane="edge_inbound_27_0" startPos="216.89836294910137" endPos="231.89836294910137" friendlyPos="true" lines="68X"/>
    <busStop id="8FA8E142E834CB7C" name="Unknown" lane="edge_inbound_28_0" startPos="323.1324805710513" endPos="338.1324805710513" friendlyPos="true" lines="68X"/>
    <busStop id="D86A74227012EAD3" name="Unknown" lane="edge_inbound_29_0" startPos="443.31036816772024" endPos="458.31036816772024" friendlyPos="true" lines="68X"/>
    <busStop id="FFF1B4F48E111EAD" name="Unknown" lane="edge_inbound_30_0" startPos="170.21666758869398" endPos="185.21666758869398" friendlyPos="true" lines="68X"/>
    <busStop id="87BCEC3D8C6951B2" name="Unknown" lane="edge_inbound_31_0" startPos="395.1034459480196" endPos="410.1034459480196" friendlyPos="true" lines="68X"/>
    <busStop id="6D66CBA494DECB08" name="Unknown" lane="edge_inbound_32_0" startPos="459.8918953406335" endPos="474.8918953406335" friendlyPos="true" lines="68X"/>
    <busStop id="EF43A73D4C0CC508" name="Unknown" lane="edge_inbound_31_0" startPos="392.8461565315712" endPos="407.8461565315712" friendlyPos="true" lines="68X"/>
    <busStop id="BB4F24A4C6A9B222" name="Unknown" lane="edge_outbound_1_0" startPos="242.3492498966303" endPos="257.34924989663034" friendlyPos="true" lines="68X"/>
    <busStop id="F61DB78CF72DB387" name="Unknown" lane="edge_inbound_30_0" startPos="158.41386786650892" endPos="173.41386786650892" friendlyPos="true" lines="68X"/>
    <busStop id="0BFC5F7FC4A2D431" name="Unknown" lane="edge_inbound_28_0" startPos="314.59199404827166" endPos="329.59199404827166" friendlyPos="true" lines="68X"/>
    <busStop id="5F616585205DDDF9" name="Unknown" lane="edge_inbound_26_0" startPos="438.3530802047597" endPos="453.3530802047597" friendlyPos="true" lines="68X"/>
    <busStop id="147D513A708AA741" name="Unknown" lane="edge_inbound_25_0" startPos="262.67045713212707" endPos="277.67045713212707" friendlyPos="true" lines="68X"/>
    <busStop id="B88640E0CA83F12C" name="Unknown" lane="edge_inbound_24_0" startPos="332.01645294322435" endPos="347.01645294322435" friendlyPos="true" lines="68X"/>
    <busStop id="A8482B15AD6E89A3" name="Unknown" lane="edge_inbound_23_0" startPos="251.29750239124732" endPos="266.29750239124735" friendlyPos="true" lines="68X"/>
    <busStop id="6A435795576D92E8" name="Unknown" lane="edge_inbound_21_0" startPos="257.93274259000145" endPos="272.93274259000145" friendlyPos="true" lines="68X"/>
    <busStop id="48FBCEF0B05599F8" name="Unknown" lane="edge_inbound_19_0" startPos="228.87336229342262" endPos="243.87336229342262" friendlyPos="true" lines="68X"/>
    <busStop id="1DEFCF90AB170FD7" name="Unknown" lane="edge_inbound_18_0" startPos="270.7895831995935" endPos="285.7895831995935" friendlyPos="true" lines="68X"/>
    <busStop id="FEE97828AB584E76" name="Unknown" lane="edge_inbound_17_0" startPos="354.49258399852977" endPos="369.49258399852977" friendlyPos="true" lines="68X"/>
    <busStop id="723EF8D7809D3ADB" name="Unknown" lane="edge_outbound_12_0" startPos="478.0206598045744" endPos="493.0206598045744" friendlyPos="true" lines="68X"/>
    <busStop id="AB0F79ED382081D0" name="Unknown" lane="edge_outbound_13_0" startPos="214.67678134814693" endPos="229.67678134814693" friendlyPos="true" lines="68X"/>
    <busStop id="3ECEF3B735084236" name="Unknown" lane="edge_inbound_14_0" startPos="11251.752542915665" endPos="11266.752542915665" friendlyPos="true" lines="68X"/>
    <busStop id="447C1D79A10C83E2" name="Unknown" lane="edge_inbound_14_0" startPos="11182.599757959626" endPos="11197.599757959626" friendlyPos="true" lines="68X"/>
    <busStop id="F36F422FDC6B9D3F" name="Unknown" lane="edge_inbound_13_0" startPos="962.6614543911584" endPos="977.6614543911584" friendlyPos="true" lines="68X"/>
    <busStop id="50E78EB09845863E" name="Unknown" lane="edge_inbound_12_0" startPos="624.6617303623606" endPos="639.6617303623606" friendlyPos="true" lines="68X"/>
    <busStop id="09A156B1A802D093" name="Unknown" lane="edge_inbound_11_0" startPos="346.5539855360247" endPos="361.5539855360247" friendlyPos="true" lines="68X"/>
    <busStop id="BD34A7B702373B12" name="Unknown" lane="edge_inbound_10_0" startPos="502.1520479231896" endPos="517.1520479231897" friendlyPos="true" lines="68X"/>
    <busStop id="E30C2815DA280036" name="Unknown" lane="edge_inbound_10_0" startPos="26.771117580919583" endPos="41.77111758091958" friendlyPos="true" lines="68X"/>
    <busStop id="C06334CA2AF7814B" name="Unknown" lane="edge_inbound_8_0" startPos="273.73699855219377" endPos="288.73699855219377" friendlyPos="true" lines="68X"/>
    <busStop id="812E72C257C94B73" name="Unknown" lane="edge_inbound_7_0" startPos="311.46524874185604" endPos="326.46524874185604" friendlyPos="true" lines="68X"/>
    <busStop id="18C138014DF5B0C8" name="Unknown" lane="edge_outbound_23_0" startPos="503.54730314043167" endPos="518.5473031404317" friendlyPos="true" lines="68X"/>
    <busStop id="0FDE3A87457539BC" name="Unknown" lane="edge_outbound_24_0" startPos="395.41931427283566" endPos="410.41931427283566" friendlyPos="true" lines="68X"/>
    <busStop id="30B08A7B2B2B623F" name="Unknown" lane="edge_outbound_25_0" startPos="527.0189553517032" endPos="542.0189553517032" friendlyPos="true" lines="68X"/>
    <busStop id="7ADC6D521E6BECE6" name="Unknown" lane="edge_outbound_26_0" startPos="324.56436283886455" endPos="339.56436283886455" friendlyPos="true" lines="68X"/>
    <busStop id="E02E10C9135624F9" name="Unknown" lane="edge_outbound_27_0" startPos="271.6577581705011" endPos="286.6577581705011" friendlyPos="true" lines="68X"/>
    <busStop id="145515B1D2C60CAF" name="Unknown" lane="edge_inbound_0_0" startPos="13.26319314905662" endPos="28.26319314905662" friendlyPos="true" lines="68X"/>
</additional>