<routes>
    <vType id="bus_kmb" vClass="bus" accel="2.5" decel="4.5" sigma="0.5" length="12" minGap="2.5" maxSpeed="20.0" color="1,0,0"/>
    <route id="route_68X_inbound" edges="edge_inbound_0 edge_inbound_1 edge_inbound_2 edge_inbound_3 edge_inbound_4 edge_inbound_5 edge_inbound_6 edge_inbound_7 edge_inbound_8 edge_inbound_9 edge_inbound_10 edge_inbound_11 edge_inbound_12 edge_inbound_13 edge_inbound_14 edge_inbound_15 edge_inbound_16 edge_inbound_17 edge_inbound_18 edge_inbound_19 edge_inbound_20 edge_inbound_21 edge_inbound_22 edge_inbound_23 edge_inbound_24 edge_inbound_25 edge_inbound_26 edge_inbound_27 edge_inbound_28 edge_inbound_29 edge_inbound_30 edge_inbound_31 edge_inbound_32"/>
    <flow id="flow_68X" type="bus_kmb" route="route_68X_inbound" begin="0" end="3600" period="600" line="68X">
        <stop busStop="EC19750840FFEDDC" duration="20"/>
        <stop busStop="B76B249D3D253008" duration="20"/>
        <stop busStop="A7F35DC09E1A1528" duration="20"/>
        <stop busStop="D242B538BA760551" duration="20"/>
        <stop busStop="11ED493F674F4888" duration="20"/>
        <stop busStop="BA765A2BCCE21F5C" duration="20"/>
        <stop busStop="BE510511B0A7344E" duration="20"/>
        <stop busStop="BE1A19A3705F5B70" duration="20"/>
        <stop busStop="95731C2B3563CF5E" duration="20"/>
        <stop busStop="4AFCFC726ADBD5F7" duration="20"/>
        <stop busStop="DD9DF46F3BA040EE" duration="20"/>
        <stop busStop="B7C0A83790F94D99" duration="20"/>
        <stop busStop="06566A7FE3C6466A" duration="20"/>
        <stop busStop="7DD772B7D55C54B2" duration="20"/>
        <stop busStop="62742CFBA2BE9854" duration="20"/>
        <stop busStop="E55FA660A59AB64A" duration="20"/>
        <stop busStop="E481F7170B1F6FC3" duration="20"/>
        <stop busStop="14157BA5C06B0B6B" duration="20"/>
        <stop busStop="F63C4B8B958E9830" duration="20"/>
        <stop busStop="74C51A8A3D783F40" duration="20"/>
        <stop busStop="0E2B8E1D544C6889" duration="20"/>
        <stop busStop="A010FE2C473103A8" duration="20"/>
        <stop busStop="70FEB409760C77EE" duration="20"/>
        <stop busStop="A1A1B10F5CE291AC" duration="20"/>
        <stop busStop="A2C36DF7152EE93F" duration="20"/>
        <stop busStop="60A4F4A41CD61FAC" duration="20"/>
        <stop busStop="8F6C8CEB9F17D97D" duration="20"/>
        <stop busStop="B09E18636F184247" duration="20"/>
        <stop busStop="B113E1371D5AC497" duration="20"/>
        <stop busStop="8FA8E142E834CB7C" duration="20"/>
        <stop busStop="D86A74227012EAD3" duration="20"/>
        <stop busStop="FFF1B4F48E111EAD" duration="20"/>
        <stop busStop="87BCEC3D8C6951B2" duration="20"/>
        <stop busStop="6D66CBA494DECB08" duration="20"/>
    </flow>
</routes>
