<routes>
    <vType id="kmb_double_decker" length="12.0" width="2.55" maxSpeed="20.0" 
           guiShape="bus" color="1,0,0" personCapacity="137"/>
    <flow id="flow_68X_inbound" type="kmb_double_decker" begin="0" end="3600" number="6" from="105735" to="260430">
        <stop busStop="EC19750840FFEDDC" duration="20"/>
        <stop busStop="B76B249D3D253008" duration="20"/>
        <stop busStop="A7F35DC09E1A1528" duration="20"/>
        <stop busStop="D242B538BA760551" duration="20"/>
        <stop busStop="11ED493F674F4888" duration="20"/>
        <stop busStop="BA765A2BCCE21F5C" duration="20"/>
        <stop busStop="BE510511B0A7344E" duration="20"/>
        <stop busStop="BE1A19A3705F5B70" duration="20"/>
        <stop busStop="95731C2B3563CF5E" duration="20"/>
        <stop busStop="4AFCFC726ADBD5F7" duration="20"/>
        <stop busStop="DD9DF46F3BA040EE" duration="20"/>
        <stop busStop="B7C0A83790F94D99" duration="20"/>
        <stop busStop="06566A7FE3C6466A" duration="20"/>
        <stop busStop="7DD772B7D55C54B2" duration="20"/>
        <stop busStop="62742CFBA2BE9854" duration="20"/>
        <stop busStop="E55FA660A59AB64A" duration="20"/>
        <stop busStop="E481F7170B1F6FC3" duration="20"/>
        <stop busStop="14157BA5C06B0B6B" duration="20"/>
        <stop busStop="F63C4B8B958E9830" duration="20"/>
        <stop busStop="74C51A8A3D783F40" duration="20"/>
        <stop busStop="0E2B8E1D544C6889" duration="20"/>
        <stop busStop="A010FE2C473103A8" duration="20"/>
        <stop busStop="70FEB409760C77EE" duration="20"/>
        <stop busStop="A1A1B10F5CE291AC" duration="20"/>
        <stop busStop="A2C36DF7152EE93F" duration="20"/>
        <stop busStop="60A4F4A41CD61FAC" duration="20"/>
        <stop busStop="8F6C8CEB9F17D97D" duration="20"/>
        <stop busStop="B09E18636F184247" duration="20"/>
        <stop busStop="B113E1371D5AC497" duration="20"/>
        <stop busStop="8FA8E142E834CB7C" duration="20"/>
        <stop busStop="D86A74227012EAD3" duration="20"/>
        <stop busStop="FFF1B4F48E111EAD" duration="20"/>
        <stop busStop="87BCEC3D8C6951B2" duration="20"/>
        <stop busStop="6D66CBA494DECB08" duration="20"/>
    </flow>
    <flow id="flow_68X_outbound" type="kmb_double_decker" begin="0" end="3600" number="6" from="260430" to="105735">
        <stop busStop="6D66CBA494DECB08" duration="20"/>
        <stop busStop="EF43A73D4C0CC508" duration="20"/>
        <stop busStop="BB4F24A4C6A9B222" duration="20"/>
        <stop busStop="F61DB78CF72DB387" duration="20"/>
        <stop busStop="0BFC5F7FC4A2D431" duration="20"/>
        <stop busStop="5F616585205DDDF9" duration="20"/>
        <stop busStop="147D513A708AA741" duration="20"/>
        <stop busStop="B88640E0CA83F12C" duration="20"/>
        <stop busStop="A8482B15AD6E89A3" duration="20"/>
        <stop busStop="6A435795576D92E8" duration="20"/>
        <stop busStop="48FBCEF0B05599F8" duration="20"/>
        <stop busStop="1DEFCF90AB170FD7" duration="20"/>
        <stop busStop="FEE97828AB584E76" duration="20"/>
        <stop busStop="723EF8D7809D3ADB" duration="20"/>
        <stop busStop="AB0F79ED382081D0" duration="20"/>
        <stop busStop="3ECEF3B735084236" duration="20"/>
        <stop busStop="447C1D79A10C83E2" duration="20"/>
        <stop busStop="F36F422FDC6B9D3F" duration="20"/>
        <stop busStop="50E78EB09845863E" duration="20"/>
        <stop busStop="09A156B1A802D093" duration="20"/>
        <stop busStop="BD34A7B702373B12" duration="20"/>
        <stop busStop="E30C2815DA280036" duration="20"/>
        <stop busStop="C06334CA2AF7814B" duration="20"/>
        <stop busStop="812E72C257C94B73" duration="20"/>
        <stop busStop="18C138014DF5B0C8" duration="20"/>
        <stop busStop="0FDE3A87457539BC" duration="20"/>
        <stop busStop="30B08A7B2B2B623F" duration="20"/>
        <stop busStop="7ADC6D521E6BECE6" duration="20"/>
        <stop busStop="E02E10C9135624F9" duration="20"/>
        <stop busStop="145515B1D2C60CAF" duration="20"/>
        <stop busStop="EC19750840FFEDDC" duration="20"/>
    </flow>
    <flow id="flow_960_inbound" type="kmb_double_decker" begin="0" end="3600" number="6" from="4287" to="266384">
        <stop busStop="ADC51A7EEEE43D6F" duration="20"/>
        <stop busStop="C3D2F84C0F0FF415" duration="20"/>
        <stop busStop="47A2AA98F8E20AE2" duration="20"/>
        <stop busStop="6F9CEABEE36E8682" duration="20"/>
        <stop busStop="A63B90588F747496" duration="20"/>
        <stop busStop="83B717529F9794BC" duration="20"/>
        <stop busStop="1D8A902219897402" duration="20"/>
        <stop busStop="A81B13297DB1C481" duration="20"/>
        <stop busStop="13E0A0449C73F4DE" duration="20"/>
        <stop busStop="AD97EA183A25102C" duration="20"/>
        <stop busStop="DFE346B2C7332BC0" duration="20"/>
        <stop busStop="2B3A6C000BB085CD" duration="20"/>
        <stop busStop="25BC743BF6EB726E" duration="20"/>
        <stop busStop="BC301D7E7F063331" duration="20"/>
        <stop busStop="CBE54DB551C24A02" duration="20"/>
        <stop busStop="629D4E7DD9EF1AC6" duration="20"/>
        <stop busStop="B3B160F8F8017035" duration="20"/>
        <stop busStop="6AE148CA74FC4D53" duration="20"/>
        <stop busStop="C192BEF2264E0CC6" duration="20"/>
        <stop busStop="542CC0EC83BAEA01" duration="20"/>
        <stop busStop="840532B7C95DF870" duration="20"/>
        <stop busStop="315BE0CA231DCD4F" duration="20"/>
        <stop busStop="274BF3A877FB8E6C" duration="20"/>
    </flow>
    <flow id="flow_960_outbound" type="kmb_double_decker" begin="0" end="3600" number="6" from="266384" to="4287">
        <stop busStop="274BF3A877FB8E6C" duration="20"/>
        <stop busStop="ECE3F3BE270C27E2" duration="20"/>
        <stop busStop="594A765BE3A43C73" duration="20"/>
        <stop busStop="507D90B4B976DBD6" duration="20"/>
        <stop busStop="1F6BFDF34BABCE6A" duration="20"/>
        <stop busStop="19B569A51034271F" duration="20"/>
        <stop busStop="1AD9C759A42F9003" duration="20"/>
        <stop busStop="EB64718829DFC071" duration="20"/>
        <stop busStop="92A8D40E66E76F6B" duration="20"/>
        <stop busStop="DD56DC2336C878C1" duration="20"/>
        <stop busStop="8121695666A4D9CE" duration="20"/>
        <stop busStop="C2787E27F82716BF" duration="20"/>
        <stop busStop="376C4835851621D4" duration="20"/>
        <stop busStop="ACB5FEA2BF9FC5AD" duration="20"/>
        <stop busStop="72F743E4D464E498" duration="20"/>
        <stop busStop="25D811895B82ABCA" duration="20"/>
        <stop busStop="709C8604AFB90F27" duration="20"/>
        <stop busStop="8379C4B1265C27F7" duration="20"/>
        <stop busStop="C804CCACB2781EEE" duration="20"/>
        <stop busStop="AD1B202B678A3B56" duration="20"/>
        <stop busStop="B30799FB3732222B" duration="20"/>
        <stop busStop="ADC51A7EEEE43D6F" duration="20"/>
    </flow>
</routes>