<?xml version="1.0" encoding="UTF-8"?>

<!-- generated on 2025-12-18 16:15:10 by Eclipse SUMO netconvert Version 1.20.0
<configuration xmlns:xsi="http://www.w3.org/2001/XMLSchema-instance" xsi:noNamespaceSchemaLocation="http://sumo.dlr.de/xsd/netconvertConfiguration.xsd">

    <input>
        <node-files value="d:\Documents\Bus Project\Sorce code\sumo\net\hk_baseline.nod.xml"/>
        <edge-files value="d:\Documents\Bus Project\Sorce code\sumo\net\hk_baseline.edg.xml"/>
    </input>

    <output>
        <output-file value="d:\Documents\Bus Project\Sorce code\sumo\net\hk_baseline.net.xml"/>
    </output>

    <projection>
        <proj.utm value="true"/>
    </projection>

</configuration>
-->

<net version="1.20" junctionCornerDetail="5" limitTurnSpeed="5.50" xmlns:xsi="http://www.w3.org/2001/XMLSchema-instance" xsi:noNamespaceSchemaLocation="http://sumo.dlr.de/xsd/net_file.xsd">

    <location netOffset="-190434.43,-2470534.46" convBoundary="0.00,0.00,18014.90,14747.85" origBoundary="113.992738,22.315830,114.169894,22.446646" projParameter="+proj=utm +zone=50 +ellps=WGS84 +datum=WGS84 +units=m +no_defs"/>

    <edge id=":stop_06566A7FE3C6466A_13_0" function="internal">
        <lane id=":stop_06566A7FE3C6466A_13_0_0" index="0" speed="13.89" length="0.73" shape="15748.07,2376.23 15747.97,2376.20 15747.89,2376.18 15747.82,2376.17 15747.71,2376.16"/>
        <lane id=":stop_06566A7FE3C6466A_13_0_1" index="1" speed="13.89" length="0.73" shape="15749.00,2373.16 15748.69,2373.07 15748.47,2373.02 15748.25,2372.99 15747.93,2372.97"/>
    </edge>
    <edge id=":stop_09A156B1A802D093_20_0" function="internal">
        <lane id=":stop_09A156B1A802D093_20_0_0" index="0" speed="13.89" length="0.69" shape="15877.32,2436.79 15877.62,2436.80 15877.83,2436.82 15878.04,2436.86 15878.33,2436.94"/>
        <lane id=":stop_09A156B1A802D093_20_0_1" index="1" speed="13.89" length="0.69" shape="15877.18,2439.99 15877.28,2439.99 15877.35,2440.00 15877.42,2440.01 15877.52,2440.04"/>
    </edge>
    <edge id=":stop_0BFC5F7FC4A2D431_5_0" function="internal">
        <lane id=":stop_0BFC5F7FC4A2D431_5_0_0" index="0" speed="13.89" length="0.50" shape="527.39,13405.68 527.58,13405.79 527.72,13405.86 527.84,13405.95 528.03,13406.08"/>
        <lane id=":stop_0BFC5F7FC4A2D431_5_0_1" index="1" speed="13.89" length="0.50" shape="525.93,13408.53 526.00,13408.57 526.04,13408.59 526.08,13408.62 526.14,13408.66"/>
    </edge>
    <edge id=":stop_0E2B8E1D544C6889_21_0" function="internal">
        <lane id=":stop_0E2B8E1D544C6889_21_0_0" index="0" speed="13.89" length="0.29" shape="3244.53,14529.84 3244.22,14529.85"/>
        <lane id=":stop_0E2B8E1D544C6889_21_0_1" index="1" speed="13.89" length="0.29" shape="3244.40,14526.65 3244.13,14526.65"/>
    </edge>
    <edge id=":stop_0FDE3A87457539BC_26_0" function="internal">
        <lane id=":stop_0FDE3A87457539BC_26_0_0" index="0" speed="13.89" length="0.87" shape="17865.73,975.35 17865.80,975.24 17865.84,975.16 17865.87,975.07 17865.91,974.95"/>
        <lane id=":stop_0FDE3A87457539BC_26_0_1" index="1" speed="13.89" length="0.87" shape="17868.47,977.01 17868.67,976.68 17868.79,976.44 17868.88,976.19 17868.99,975.82"/>
    </edge>
    <edge id=":stop_11ED493F674F4888_5_0" function="internal">
        <lane id=":stop_11ED493F674F4888_5_0_0" index="0" speed="6.10" length="9.72" shape="17904.00,611.63 17906.34,613.16 17907.37,614.94 17907.08,616.98 17905.46,619.27"/>
        <lane id=":stop_11ED493F674F4888_5_0_1" index="1" speed="3.92" length="3.24" shape="17902.64,614.53 17903.43,615.04 17903.77,615.63 17903.67,616.31 17903.13,617.08"/>
    </edge>
    <edge id=":stop_14157BA5C06B0B6B_18_0" function="internal">
        <lane id=":stop_14157BA5C06B0B6B_18_0_0" index="0" speed="6.78" length="2.40" shape="4329.81,14504.32 4329.00,14504.99 4328.36,14505.36 4327.63,14505.50 4326.57,14505.52"/>
        <lane id=":stop_14157BA5C06B0B6B_18_0_1" index="1" speed="4.27" length="2.40" shape="4327.69,14501.92 4327.42,14502.15 4327.21,14502.27 4326.96,14502.32 4326.61,14502.32"/>
    </edge>
    <edge id=":stop_145515B1D2C60CAF_30_0" function="internal">
        <lane id=":stop_145515B1D2C60CAF_30_0_0" index="0" speed="4.12" length="1.39" shape="17388.07,50.90 17387.97,50.56 17387.80,50.27 17387.57,50.02 17387.28,49.82"/>
        <lane id=":stop_145515B1D2C60CAF_30_0_1" index="1" speed="6.50" length="4.17" shape="17391.21,50.27 17390.90,49.25 17390.39,48.37 17389.70,47.62 17388.82,47.01"/>
    </edge>
    <edge id=":stop_147D513A708AA741_7_0" function="internal">
        <lane id=":stop_147D513A708AA741_7_0_0" index="0" speed="13.89" length="0.24" shape="1312.47,13952.91 1312.57,13952.97"/>
        <lane id=":stop_147D513A708AA741_7_0_1" index="1" speed="13.89" length="0.24" shape="1310.69,13955.56 1310.99,13955.75"/>
    </edge>
    <edge id=":stop_18C138014DF5B0C8_25_0" function="internal">
        <lane id=":stop_18C138014DF5B0C8_25_0_0" index="0" speed="13.89" length="1.01" shape="17659.95,1313.58 17660.06,1313.48 17660.14,1313.41 17660.20,1313.32 17660.27,1313.20"/>
        <lane id=":stop_18C138014DF5B0C8_25_0_1" index="1" speed="12.89" length="1.01" shape="17662.04,1316.00 17662.38,1315.71 17662.59,1315.49 17662.77,1315.24 17663.01,1314.86"/>
    </edge>
    <edge id=":stop_1DEFCF90AB170FD7_12_0" function="internal">
        <lane id=":stop_1DEFCF90AB170FD7_12_0_0" index="0" speed="13.89" length="0.30" shape="3696.14,14532.02 3696.44,14532.01"/>
        <lane id=":stop_1DEFCF90AB170FD7_12_0_1" index="1" speed="13.89" length="0.30" shape="3696.26,14535.22 3696.55,14535.20"/>
    </edge>
    <edge id=":stop_30B08A7B2B2B623F_27_0" function="internal">
        <lane id=":stop_30B08A7B2B2B623F_27_0_0" index="0" speed="3.92" length="2.27" shape="18008.83,467.68 18008.91,467.07 18008.80,466.56 18008.48,466.14 18007.98,465.80"/>
        <lane id=":stop_30B08A7B2B2B623F_27_0_1" index="1" speed="6.11" length="6.81" shape="18011.91,468.55 18012.16,466.74 18011.82,465.20 18010.88,463.92 18009.36,462.92"/>
    </edge>
    <edge id=":stop_3ECEF3B735084236_16_0" function="internal">
        <lane id=":stop_3ECEF3B735084236_16_0_0" index="0" speed="4.18" length="1.28" shape="7350.45,11810.71 7350.66,11810.46 7350.81,11810.19 7350.90,11809.89 7350.93,11809.56"/>
        <lane id=":stop_3ECEF3B735084236_16_0_1" index="1" speed="6.60" length="3.85" shape="7352.69,11813.00 7353.32,11812.25 7353.78,11811.43 7354.05,11810.53 7354.13,11809.55"/>
    </edge>
    <edge id=":stop_447C1D79A10C83E2_17_0" function="internal">
        <lane id=":stop_447C1D79A10C83E2_17_0_0" index="0" speed="7.00" length="2.12" shape="7350.58,11725.05 7350.60,11724.12 7350.71,11723.47 7351.01,11722.88 7351.56,11722.13"/>
        <lane id=":stop_447C1D79A10C83E2_17_0_1" index="1" speed="4.39" length="2.12" shape="7353.78,11725.04 7353.78,11724.72 7353.82,11724.51 7353.92,11724.31 7354.10,11724.06"/>
    </edge>
    <edge id=":stop_48FBCEF0B05599F8_11_0" function="internal">
        <lane id=":stop_48FBCEF0B05599F8_11_0_0" index="0" speed="13.89" length="0.21" shape="3414.90,14542.57 3415.00,14542.57"/>
        <lane id=":stop_48FBCEF0B05599F8_11_0_1" index="1" speed="13.89" length="0.21" shape="3414.81,14545.77 3415.12,14545.77"/>
    </edge>
    <edge id=":stop_4AFCFC726ADBD5F7_10_0" function="internal">
        <lane id=":stop_4AFCFC726ADBD5F7_10_0_0" index="0" speed="13.89" length="0.16" shape="16861.49,1993.16 16861.30,1993.32"/>
        <lane id=":stop_4AFCFC726ADBD5F7_10_0_1" index="1" speed="13.89" length="0.16" shape="16859.34,1990.78 16859.28,1990.84"/>
    </edge>
    <edge id=":stop_50E78EB09845863E_19_0" function="internal">
        <lane id=":stop_50E78EB09845863E_19_0_0" index="0" speed="10.51" length="1.12" shape="15117.87,2405.38 15118.35,2405.23 15118.68,2405.16 15119.03,2405.14 15119.52,2405.16"/>
        <lane id=":stop_50E78EB09845863E_19_0_1" index="1" speed="13.89" length="1.12" shape="15118.84,2408.43 15119.00,2408.38 15119.11,2408.35 15119.23,2408.35 15119.39,2408.35"/>
    </edge>
    <edge id=":stop_5F616585205DDDF9_6_0" function="internal">
        <lane id=":stop_5F616585205DDDF9_6_0_0" index="0" speed="13.89" length="0.24" shape="892.40,13671.36 892.55,13671.46"/>
        <lane id=":stop_5F616585205DDDF9_6_0_1" index="1" speed="13.89" length="0.24" shape="890.52,13673.94 890.76,13674.11"/>
    </edge>
    <edge id=":stop_60A4F4A41CD61FAC_26_0" function="internal">
        <lane id=":stop_60A4F4A41CD61FAC_26_0_0" index="0" speed="13.89" length="0.11" shape="1557.40,14086.38 1557.27,14086.29"/>
        <lane id=":stop_60A4F4A41CD61FAC_26_0_1" index="1" speed="13.89" length="0.11" shape="1559.07,14083.65 1559.02,14083.62"/>
    </edge>
    <edge id=":stop_62742CFBA2BE9854_15_0" function="internal">
        <lane id=":stop_62742CFBA2BE9854_15_0_0" index="0" speed="13.89" length="1.53" shape="14106.39,2809.21 14106.19,2809.31 14106.06,2809.40 14105.95,2809.51 14105.81,2809.68"/>
        <lane id=":stop_62742CFBA2BE9854_15_0_1" index="1" speed="7.98" length="1.53" shape="14105.02,2806.32 14104.41,2806.62 14104.01,2806.88 14103.68,2807.21 14103.26,2807.74"/>
    </edge>
    <edge id=":stop_6A435795576D92E8_10_0" function="internal">
        <lane id=":stop_6A435795576D92E8_10_0_0" index="0" speed="13.89" length="0.65" shape="2682.44,14522.09 2682.54,14522.11 2682.60,14522.12 2682.67,14522.13 2682.77,14522.13"/>
        <lane id=":stop_6A435795576D92E8_10_0_1" index="1" speed="13.89" length="0.65" shape="2681.72,14525.20 2682.00,14525.27 2682.19,14525.30 2682.39,14525.32 2682.68,14525.33"/>
    </edge>
    <edge id=":stop_70FEB409760C77EE_23_0" function="internal">
        <lane id=":stop_70FEB409760C77EE_23_0_0" index="0" speed="13.89" length="0.17" shape="2719.11,14502.87 2718.85,14502.83"/>
        <lane id=":stop_70FEB409760C77EE_23_0_1" index="1" speed="13.89" length="0.17" shape="2719.53,14499.70 2719.44,14499.69"/>
    </edge>
    <edge id=":stop_723EF8D7809D3ADB_14_0" function="internal">
        <lane id=":stop_723EF8D7809D3ADB_14_0_0" index="0" speed="3.92" length="2.30" shape="4399.12,14741.08 4399.70,14741.29 4400.23,14741.27 4400.71,14741.05 4401.14,14740.60"/>
        <lane id=":stop_723EF8D7809D3ADB_14_0_1" index="1" speed="6.11" length="6.90" shape="4397.65,14743.93 4399.40,14744.54 4401.00,14744.51 4402.44,14743.82 4403.72,14742.49"/>
    </edge>
    <edge id=":stop_74C51A8A3D783F40_20_0" function="internal">
        <lane id=":stop_74C51A8A3D783F40_20_0_0" index="0" speed="13.89" length="0.30" shape="3642.98,14513.85 3642.69,14513.86"/>
        <lane id=":stop_74C51A8A3D783F40_20_0_1" index="1" speed="13.89" length="0.30" shape="3642.86,14510.65 3642.56,14510.66"/>
    </edge>
    <edge id=":stop_7ADC6D521E6BECE6_28_0" function="internal">
        <lane id=":stop_7ADC6D521E6BECE6_28_0_0" index="0" speed="13.89" length="1.25" shape="17715.33,325.44 17715.16,325.36 17715.04,325.32 17714.92,325.30 17714.74,325.29"/>
        <lane id=":stop_7ADC6D521E6BECE6_28_0_1" index="1" speed="9.28" length="1.25" shape="17716.72,322.56 17716.21,322.32 17715.85,322.19 17715.48,322.13 17714.93,322.09"/>
    </edge>
    <edge id=":stop_7DD772B7D55C54B2_14_0" function="internal">
        <lane id=":stop_7DD772B7D55C54B2_14_0_0" index="0" speed="13.89" length="1.65" shape="15107.26,2332.76 15107.01,2332.75 15106.84,2332.76 15106.68,2332.81 15106.46,2332.91"/>
        <lane id=":stop_7DD772B7D55C54B2_14_0_1" index="1" speed="7.67" length="1.65" shape="15107.47,2329.57 15106.74,2329.53 15106.24,2329.57 15105.75,2329.72 15105.08,2330.03"/>
    </edge>
    <edge id=":stop_812E72C257C94B73_24_0" function="internal">
        <lane id=":stop_812E72C257C94B73_24_0_0" index="0" speed="13.89" length="0.30" shape="17278.28,1642.51 17278.51,1642.31"/>
        <lane id=":stop_812E72C257C94B73_24_0_1" index="1" speed="13.89" length="0.30" shape="17280.38,1644.92 17280.60,1644.73"/>
    </edge>
    <edge id=":stop_87BCEC3D8C6951B2_33_0" function="internal">
        <lane id=":stop_87BCEC3D8C6951B2_33_0_0" index="0" speed="13.89" length="1.75" shape="215.96,13505.62 216.10,13505.84 216.21,13505.98 216.36,13506.08 216.59,13506.21"/>
        <lane id=":stop_87BCEC3D8C6951B2_33_0_1" index="1" speed="7.48" length="1.75" shape="213.23,13507.30 213.65,13507.95 214.00,13508.37 214.44,13508.68 215.12,13509.05"/>
    </edge>
    <edge id=":stop_8F6C8CEB9F17D97D_27_0" function="internal">
        <lane id=":stop_8F6C8CEB9F17D97D_27_0_0" index="0" speed="13.89" length="0.30" shape="1337.62,13942.24 1337.38,13942.08"/>
        <lane id=":stop_8F6C8CEB9F17D97D_27_0_1" index="1" speed="13.89" length="0.30" shape="1339.38,13939.56 1339.12,13939.39"/>
    </edge>
    <edge id=":stop_8FA8E142E834CB7C_30_0" function="internal">
        <lane id=":stop_8FA8E142E834CB7C_30_0_0" index="0" speed="13.89" length="0.30" shape="531.82,13386.57 531.57,13386.39"/>
        <lane id=":stop_8FA8E142E834CB7C_30_0_1" index="1" speed="13.89" length="0.30" shape="533.72,13383.99 533.48,13383.81"/>
    </edge>
    <edge id=":stop_95731C2B3563CF5E_9_0" function="internal">
        <lane id=":stop_95731C2B3563CF5E_9_0_0" index="0" speed="13.89" length="0.29" shape="17172.50,1712.49 17172.30,1712.67"/>
        <lane id=":stop_95731C2B3563CF5E_9_0_1" index="1" speed="13.89" length="0.29" shape="17170.39,1710.09 17170.15,1710.29"/>
    </edge>
    <edge id=":stop_A010FE2C473103A8_22_0" function="internal">
        <lane id=":stop_A010FE2C473103A8_22_0_0" index="0" speed="13.89" length="0.51" shape="2975.55,14536.85 2975.33,14536.85 2975.17,14536.85 2975.02,14536.84 2974.80,14536.81"/>
        <lane id=":stop_A010FE2C473103A8_22_0_1" index="1" speed="13.89" length="0.51" shape="2975.47,14533.65 2975.40,14533.65 2975.34,14533.65 2975.29,14533.65 2975.22,14533.64"/>
    </edge>
    <edge id=":stop_A1A1B10F5CE291AC_24_0" function="internal">
        <lane id=":stop_A1A1B10F5CE291AC_24_0_0" index="0" speed="13.89" length="0.56" shape="2254.47,14415.31 2254.23,14415.26 2254.06,14415.22 2253.90,14415.17 2253.67,14415.08"/>
        <lane id=":stop_A1A1B10F5CE291AC_24_0_1" index="1" speed="13.89" length="0.56" shape="2255.07,14412.16 2254.98,14412.15 2254.93,14412.13 2254.87,14412.12 2254.80,14412.09"/>
    </edge>
    <edge id=":stop_A2C36DF7152EE93F_25_0" function="internal">
        <lane id=":stop_A2C36DF7152EE93F_25_0_0" index="0" speed="13.89" length="0.60" shape="1841.71,14259.57 1841.46,14259.48 1841.30,14259.41 1841.14,14259.32 1840.91,14259.18"/>
        <lane id=":stop_A2C36DF7152EE93F_25_0_1" index="1" speed="13.89" length="0.60" shape="1842.84,14256.58 1842.76,14256.55 1842.70,14256.52 1842.65,14256.49 1842.57,14256.45"/>
    </edge>
    <edge id=":stop_A7F35DC09E1A1528_3_0" function="internal">
        <lane id=":stop_A7F35DC09E1A1528_3_0_0" index="0" speed="13.89" length="1.11" shape="17284.22,386.50 17284.36,386.60 17284.45,386.66 17284.56,386.70 17284.71,386.75"/>
        <lane id=":stop_A7F35DC09E1A1528_3_0_1" index="1" speed="10.67" length="1.11" shape="17282.31,389.07 17282.71,389.36 17283.00,389.53 17283.31,389.66 17283.78,389.81"/>
    </edge>
    <edge id=":stop_A8482B15AD6E89A3_9_0" function="internal">
        <lane id=":stop_A8482B15AD6E89A3_9_0_0" index="0" speed="13.89" length="1.00" shape="2004.50,14363.21 2004.63,14363.29 2004.72,14363.33 2004.82,14363.37 2004.96,14363.40"/>
        <lane id=":stop_A8482B15AD6E89A3_9_0_1" index="1" speed="13.14" length="1.00" shape="2002.86,14365.96 2003.24,14366.18 2003.51,14366.32 2003.80,14366.41 2004.23,14366.52"/>
    </edge>
    <edge id=":stop_AB0F79ED382081D0_15_0" function="internal">
        <lane id=":stop_AB0F79ED382081D0_15_0_0" index="0" speed="13.89" length="0.53" shape="4527.72,14567.22 4527.86,14567.03 4527.96,14566.90 4528.08,14566.78 4528.25,14566.61"/>
        <lane id=":stop_AB0F79ED382081D0_15_0_1" index="1" speed="13.89" length="0.53" shape="4530.31,14569.10 4530.35,14569.04 4530.39,14569.00 4530.42,14568.96 4530.48,14568.90"/>
    </edge>
    <edge id=":stop_B09E18636F184247_28_0" function="internal">
        <lane id=":stop_B09E18636F184247_28_0_0" index="0" speed="13.89" length="0.15" shape="969.03,13704.45 968.84,13704.33"/>
        <lane id=":stop_B09E18636F184247_28_0_1" index="1" speed="13.89" length="0.15" shape="970.76,13701.76 970.70,13701.72"/>
    </edge>
    <edge id=":stop_B113E1371D5AC497_29_0" function="internal">
        <lane id=":stop_B113E1371D5AC497_29_0_0" index="0" speed="13.89" length="0.29" shape="792.28,13578.35 792.02,13578.17"/>
        <lane id=":stop_B113E1371D5AC497_29_0_1" index="1" speed="13.89" length="0.29" shape="794.13,13575.75 793.92,13575.59"/>
    </edge>
    <edge id=":stop_B76B249D3D253008_2_0" function="internal">
        <lane id=":stop_B76B249D3D253008_2_0_0" index="0" speed="3.94" length="2.10" shape="17190.68,315.25 17190.55,315.79 17190.60,316.28 17190.82,316.72 17191.22,317.10"/>
        <lane id=":stop_B76B249D3D253008_2_0_1" index="1" speed="6.15" length="6.29" shape="17187.70,314.10 17187.31,315.72 17187.45,317.19 17188.11,318.50 17189.31,319.67"/>
    </edge>
    <edge id=":stop_B7C0A83790F94D99_12_0" function="internal">
        <lane id=":stop_B7C0A83790F94D99_12_0_0" index="0" speed="6.36" length="4.72" shape="16220.52,2517.10 16219.50,2517.77 16218.42,2518.13 16217.28,2518.21 16216.08,2517.98"/>
        <lane id=":stop_B7C0A83790F94D99_12_0_1" index="1" speed="4.05" length="1.57" shape="16218.49,2514.63 16218.15,2514.85 16217.79,2514.97 16217.41,2515.00 16217.01,2514.92"/>
    </edge>
    <edge id=":stop_B88640E0CA83F12C_8_0" function="internal">
        <lane id=":stop_B88640E0CA83F12C_8_0_0" index="0" speed="13.89" length="0.10" shape="1474.33,14044.83 1474.43,14044.89"/>
        <lane id=":stop_B88640E0CA83F12C_8_0_1" index="1" speed="13.89" length="0.10" shape="1472.75,14047.62 1472.78,14047.64"/>
    </edge>
    <edge id=":stop_BA765A2BCCE21F5C_6_0" function="internal">
        <lane id=":stop_BA765A2BCCE21F5C_6_0_0" index="0" speed="13.89" length="0.59" shape="17590.24,953.70 17590.18,953.77 17590.14,953.81 17590.11,953.86 17590.06,953.94"/>
        <lane id=":stop_BA765A2BCCE21F5C_6_0_1" index="1" speed="13.89" length="0.59" shape="17587.92,951.51 17587.74,951.70 17587.62,951.84 17587.51,951.99 17587.37,952.21"/>
    </edge>
    <edge id=":stop_BB4F24A4C6A9B222_3_0" function="internal">
        <lane id=":stop_BB4F24A4C6A9B222_3_0_0" index="0" speed="6.22" length="5.61" shape="2.95,13395.97 1.72,13395.17 0.86,13394.14 0.38,13392.89 0.27,13391.43"/>
        <lane id=":stop_BB4F24A4C6A9B222_3_0_1" index="1" speed="3.98" length="1.87" shape="4.36,13393.10 3.95,13392.83 3.67,13392.49 3.51,13392.08 3.47,13391.59"/>
    </edge>
    <edge id=":stop_BD34A7B702373B12_21_0" function="internal">
        <lane id=":stop_BD34A7B702373B12_21_0_0" index="0" speed="4.07" length="1.53" shape="16235.82,2530.47 16236.21,2530.53 16236.58,2530.49 16236.92,2530.36 16237.25,2530.15"/>
        <lane id=":stop_BD34A7B702373B12_21_0_1" index="1" speed="6.39" length="4.58" shape="16235.01,2533.56 16236.18,2533.74 16237.28,2533.64 16238.33,2533.26 16239.31,2532.60"/>
    </edge>
    <edge id=":stop_BE1A19A3705F5B70_8_0" function="internal">
        <lane id=":stop_BE1A19A3705F5B70_8_0_0" index="0" speed="6.14" length="6.41" shape="17502.64,1418.68 17503.21,1420.29 17503.21,1421.79 17502.65,1423.18 17501.53,1424.46"/>
        <lane id=":stop_BE1A19A3705F5B70_8_0_1" index="1" speed="3.94" length="2.14" shape="17499.79,1420.13 17499.98,1420.66 17499.98,1421.16 17499.79,1421.63 17499.42,1422.06"/>
    </edge>
    <edge id=":stop_BE510511B0A7344E_7_0" function="internal">
        <lane id=":stop_BE510511B0A7344E_7_0_0" index="0" speed="4.02" length="1.67" shape="17409.95,1234.51 17409.76,1234.90 17409.68,1235.29 17409.72,1235.69 17409.87,1236.10"/>
        <lane id=":stop_BE510511B0A7344E_7_0_1" index="1" speed="6.31" length="5.01" shape="17407.25,1232.78 17406.68,1233.94 17406.45,1235.13 17406.56,1236.33 17407.01,1237.55"/>
    </edge>
    <edge id=":stop_C06334CA2AF7814B_23_0" function="internal">
        <lane id=":stop_C06334CA2AF7814B_23_0_0" index="0" speed="13.89" length="0.29" shape="16977.55,1905.49 16977.75,1905.32"/>
        <lane id=":stop_C06334CA2AF7814B_23_0_1" index="1" speed="13.89" length="0.29" shape="16979.62,1907.93 16979.86,1907.73"/>
    </edge>
    <edge id=":stop_D242B538BA760551_4_0" function="internal">
        <lane id=":stop_D242B538BA760551_4_0_0" index="0" speed="13.89" length="0.45" shape="17679.81,507.09 17680.01,507.15 17680.14,507.19 17680.26,507.25 17680.44,507.33"/>
        <lane id=":stop_D242B538BA760551_4_0_1" index="1" speed="13.89" length="0.45" shape="17678.88,510.15 17678.95,510.17 17678.99,510.19 17679.03,510.20 17679.09,510.23"/>
    </edge>
    <edge id=":stop_D86A74227012EAD3_31_0" function="internal">
        <lane id=":stop_D86A74227012EAD3_31_0_0" index="0" speed="4.10" length="1.44" shape="175.20,13122.71 174.88,13122.52 174.55,13122.42 174.20,13122.40 173.83,13122.46"/>
        <lane id=":stop_D86A74227012EAD3_31_0_1" index="1" speed="6.45" length="4.33" shape="177.11,13120.14 176.15,13119.57 175.15,13119.26 174.10,13119.19 173.00,13119.37"/>
    </edge>
    <edge id=":stop_DD9DF46F3BA040EE_11_0" function="internal">
        <lane id=":stop_DD9DF46F3BA040EE_11_0_0" index="0" speed="13.89" length="0.30" shape="16610.09,2197.57 16609.87,2197.75"/>
        <lane id=":stop_DD9DF46F3BA040EE_11_0_1" index="1" speed="13.89" length="0.30" shape="16608.07,2195.08 16607.84,2195.28"/>
    </edge>
    <edge id=":stop_E02E10C9135624F9_29_0" function="internal">
        <lane id=":stop_E02E10C9135624F9_29_0_0" index="0" speed="6.14" length="6.37" shape="17443.56,309.09 17441.90,308.77 17440.61,308.02 17439.69,306.85 17439.14,305.25"/>
        <lane id=":stop_E02E10C9135624F9_29_0_1" index="1" speed="3.94" length="2.12" shape="17443.75,305.90 17443.20,305.79 17442.77,305.54 17442.46,305.15 17442.28,304.62"/>
    </edge>
    <edge id=":stop_E30C2815DA280036_22_0" function="internal">
        <lane id=":stop_E30C2815DA280036_22_0_0" index="0" speed="13.89" length="0.30" shape="16599.07,2227.13 16599.29,2226.95"/>
        <lane id=":stop_E30C2815DA280036_22_0_1" index="1" speed="13.89" length="0.30" shape="16601.13,2229.59 16601.36,2229.39"/>
    </edge>
    <edge id=":stop_E481F7170B1F6FC3_17_0" function="internal">
        <lane id=":stop_E481F7170B1F6FC3_17_0_0" index="0" speed="6.23" length="5.50" shape="7300.39,11870.22 7300.64,11871.64 7300.48,11872.94 7299.93,11874.13 7298.98,11875.21"/>
        <lane id=":stop_E481F7170B1F6FC3_17_0_1" index="1" speed="3.98" length="1.83" shape="7297.33,11871.15 7297.41,11871.62 7297.36,11872.06 7297.18,11872.45 7296.86,11872.81"/>
    </edge>
    <edge id=":stop_E55FA660A59AB64A_16_0" function="internal">
        <lane id=":stop_E55FA660A59AB64A_16_0_0" index="0" speed="4.07" length="1.51" shape="7272.73,11776.50 7272.53,11776.83 7272.42,11777.18 7272.40,11777.55 7272.47,11777.93"/>
        <lane id=":stop_E55FA660A59AB64A_16_0_1" index="1" speed="6.40" length="4.54" shape="7270.19,11774.56 7269.58,11775.56 7269.25,11776.61 7269.19,11777.71 7269.41,11778.86"/>
    </edge>
    <edge id=":stop_EF43A73D4C0CC508_2_0" function="internal">
        <lane id=":stop_EF43A73D4C0CC508_2_0_0" index="0" speed="13.89" length="0.27" shape="220.54,13503.12 220.37,13503.03"/>
        <lane id=":stop_EF43A73D4C0CC508_2_0_1" index="1" speed="13.89" length="0.27" shape="222.10,13500.32 221.79,13500.16"/>
    </edge>
    <edge id=":stop_F36F422FDC6B9D3F_18_0" function="internal">
        <lane id=":stop_F36F422FDC6B9D3F_18_0_0" index="0" speed="7.14" length="1.99" shape="14209.94,2694.46 14210.49,2693.78 14210.94,2693.36 14211.48,2693.08 14212.31,2692.79"/>
        <lane id=":stop_F36F422FDC6B9D3F_18_0_1" index="1" speed="13.89" length="1.99" shape="14212.49,2696.40 14212.67,2696.17 14212.82,2696.03 14213.00,2695.94 14213.28,2695.84"/>
    </edge>
    <edge id=":stop_F61DB78CF72DB387_4_0" function="internal">
        <lane id=":stop_F61DB78CF72DB387_4_0_0" index="0" speed="6.14" length="10.49" shape="12.44,13149.98 13.01,13146.95 14.37,13145.27 16.50,13144.94 19.42,13145.95"/>
        <lane id=":stop_F61DB78CF72DB387_4_0_1" index="1" speed="3.94" length="3.50" shape="15.63,13150.14 15.83,13149.13 16.28,13148.57 16.99,13148.46 17.96,13148.80"/>
    </edge>
    <edge id=":stop_F63C4B8B958E9830_19_0" function="internal">
        <lane id=":stop_F63C4B8B958E9830_19_0_0" index="0" speed="13.89" length="0.17" shape="3966.13,14501.02 3966.05,14501.02"/>
        <lane id=":stop_F63C4B8B958E9830_19_0_1" index="1" speed="13.89" length="0.17" shape="3966.17,14497.82 3965.92,14497.83"/>
    </edge>
    <edge id=":stop_FEE97828AB584E76_13_0" function="internal">
        <lane id=":stop_FEE97828AB584E76_13_0_0" index="0" speed="7.68" length="1.65" shape="3971.61,14522.01 3972.34,14522.00 3972.84,14522.05 3973.32,14522.22 3973.98,14522.54"/>
        <lane id=":stop_FEE97828AB584E76_13_0_1" index="1" speed="13.89" length="1.65" shape="3971.72,14525.21 3971.97,14525.21 3972.13,14525.22 3972.29,14525.28 3972.51,14525.39"/>
    </edge>
    <edge id=":stop_FFF1B4F48E111EAD_32_0" function="internal">
        <lane id=":stop_FFF1B4F48E111EAD_32_0_0" index="0" speed="3.91" length="3.17" shape="9.53,13166.93 8.69,13167.29 8.26,13167.81 8.22,13168.48 8.59,13169.31"/>
        <lane id=":stop_FFF1B4F48E111EAD_32_0_1" index="1" speed="6.09" length="9.51" shape="8.69,13163.84 6.19,13164.92 4.88,13166.47 4.77,13168.49 5.86,13170.99"/>
    </edge>

    <edge id="edge_inbound_0" from="stop_EC19750840FFEDDC_1" to="stop_B76B249D3D253008_2" priority="1">
        <lane id="edge_inbound_0_0" index="0" speed="13.89" length="335.94" shape="17311.34,1.72 17190.68,315.25"/>
        <lane id="edge_inbound_0_1" index="1" speed="13.89" length="335.94" shape="17308.35,0.57 17187.70,314.10"/>
    </edge>
    <edge id="edge_inbound_1" from="stop_B76B249D3D253008_2" to="stop_A7F35DC09E1A1528_3" priority="1">
        <lane id="edge_inbound_1_0" index="0" speed="13.89" length="116.04" shape="17191.22,317.10 17284.22,386.50"/>
        <lane id="edge_inbound_1_1" index="1" speed="13.89" length="116.04" shape="17189.31,319.67 17282.31,389.07"/>
    </edge>
    <edge id="edge_inbound_10" from="stop_DD9DF46F3BA040EE_11" to="stop_B7C0A83790F94D99_12" priority="1">
        <lane id="edge_inbound_10_0" index="0" speed="13.89" length="503.56" shape="16609.87,2197.75 16220.52,2517.10"/>
        <lane id="edge_inbound_10_1" index="1" speed="13.89" length="503.56" shape="16607.84,2195.28 16218.49,2514.63"/>
    </edge>
    <edge id="edge_inbound_11" from="stop_B7C0A83790F94D99_12" to="stop_06566A7FE3C6466A_13" priority="1">
        <lane id="edge_inbound_11_0" index="0" speed="13.89" length="489.01" shape="16216.08,2517.98 15748.07,2376.23"/>
        <lane id="edge_inbound_11_1" index="1" speed="13.89" length="489.01" shape="16217.01,2514.92 15749.00,2373.16"/>
    </edge>
    <edge id="edge_inbound_12" from="stop_06566A7FE3C6466A_13" to="stop_7DD772B7D55C54B2_14" priority="1">
        <lane id="edge_inbound_12_0" index="0" speed="13.89" length="641.93" shape="15747.71,2376.16 15107.26,2332.76"/>
        <lane id="edge_inbound_12_1" index="1" speed="13.89" length="641.93" shape="15747.93,2372.97 15107.47,2329.57"/>
    </edge>
    <edge id="edge_inbound_13" from="stop_7DD772B7D55C54B2_14" to="stop_62742CFBA2BE9854_15" priority="1">
        <lane id="edge_inbound_13_0" index="0" speed="13.89" length="1107.70" shape="15106.46,2332.91 14106.39,2809.21"/>
        <lane id="edge_inbound_13_1" index="1" speed="13.89" length="1107.70" shape="15105.08,2330.03 14105.02,2806.32"/>
    </edge>
    <edge id="edge_inbound_14" from="stop_62742CFBA2BE9854_15" to="stop_E55FA660A59AB64A_16" priority="1">
        <lane id="edge_inbound_14_0" index="0" speed="13.89" length="11273.63" shape="14105.81,2809.68 7272.73,11776.50"/>
        <lane id="edge_inbound_14_1" index="1" speed="13.89" length="11273.63" shape="14103.26,2807.74 7270.19,11774.56"/>
    </edge>
    <edge id="edge_inbound_15" from="stop_E55FA660A59AB64A_16" to="stop_E481F7170B1F6FC3_17" priority="1">
        <lane id="edge_inbound_15_0" index="0" speed="13.89" length="96.42" shape="7272.47,11777.93 7300.39,11870.22"/>
        <lane id="edge_inbound_15_1" index="1" speed="13.89" length="96.42" shape="7269.41,11778.86 7297.33,11871.15"/>
    </edge>
    <edge id="edge_inbound_16" from="stop_E481F7170B1F6FC3_17" to="stop_14157BA5C06B0B6B_18" priority="1">
        <lane id="edge_inbound_16_0" index="0" speed="13.89" length="3965.87" shape="7298.98,11875.21 4329.81,14504.32"/>
        <lane id="edge_inbound_16_1" index="1" speed="13.89" length="3965.87" shape="7296.86,11872.81 4327.69,14501.92"/>
    </edge>
    <edge id="edge_inbound_17" from="stop_14157BA5C06B0B6B_18" to="stop_F63C4B8B958E9830_19" priority="1">
        <lane id="edge_inbound_17_0" index="0" speed="13.89" length="360.47" shape="4326.57,14505.52 3966.13,14501.02"/>
        <lane id="edge_inbound_17_1" index="1" speed="13.89" length="360.47" shape="4326.61,14502.32 3966.17,14497.82"/>
    </edge>
    <edge id="edge_inbound_18" from="stop_F63C4B8B958E9830_19" to="stop_74C51A8A3D783F40_20" priority="1">
        <lane id="edge_inbound_18_0" index="0" speed="13.89" length="323.32" shape="3966.05,14501.02 3642.98,14513.85"/>
        <lane id="edge_inbound_18_1" index="1" speed="13.89" length="323.32" shape="3965.92,14497.83 3642.86,14510.65"/>
    </edge>
    <edge id="edge_inbound_19" from="stop_74C51A8A3D783F40_20" to="stop_0E2B8E1D544C6889_21" priority="1">
        <lane id="edge_inbound_19_0" index="0" speed="13.89" length="398.48" shape="3642.69,14513.86 3244.53,14529.84"/>
        <lane id="edge_inbound_19_1" index="1" speed="13.89" length="398.48" shape="3642.56,14510.66 3244.40,14526.65"/>
    </edge>
    <edge id="edge_inbound_2" from="stop_A7F35DC09E1A1528_3" to="stop_D242B538BA760551_4" priority="1">