<nodes>
    <node id="stop_EC19750840FFEDDC_1" x="114.163112" y="22.31583" type="priority"/>
    <node id="stop_B76B249D3D253008_2" x="114.161867" y="22.318679" type="priority"/>
    <node id="stop_A7F35DC09E1A1528_3" x="114.162802" y="22.319354" type="priority"/>
    <node id="stop_D242B538BA760551_4" x="114.166622" y="22.32051" type="priority"/>
    <node id="stop_11ED493F674F4888_5" x="114.168771" y="22.321489" type="priority"/>
    <node id="stop_BA765A2BCCE21F5C_6" x="114.165649" y="22.324457" type="priority"/>
    <node id="stop_BE510511B0A7344E_7" x="114.163828" y="22.32699" type="priority"/>
    <node id="stop_BE1A19A3705F5B70_8" x="114.16471" y="22.328683" type="priority"/>
    <node id="stop_95731C2B3563CF5E_9" x="114.161465" y="22.331227" type="priority"/>
    <node id="stop_4AFCFC726ADBD5F7_10" x="114.158398" y="22.333706" type="priority"/>
    <node id="stop_DD9DF46F3BA040EE_11" x="114.155923" y="22.335507" type="priority"/>
    <node id="stop_B7C0A83790F94D99_12" x="114.152087" y="22.338323" type="priority"/>
    <node id="stop_06566A7FE3C6466A_13" x="114.147567" y="22.336962" type="priority"/>
    <node id="stop_7DD772B7D55C54B2_14" x="114.14134" y="22.336459" type="priority"/>
    <node id="stop_62742CFBA2BE9854_15" x="114.131524" y="22.340597" type="priority"/>
    <node id="stop_E55FA660A59AB64A_16" x="114.063524" y="22.420344" type="priority"/>
    <node id="stop_E481F7170B1F6FC3_17" x="114.063786" y="22.42121" type="priority"/>
    <node id="stop_14157BA5C06B0B6B_18" x="114.034469" y="22.444403" type="priority"/>
    <node id="stop_F63C4B8B958E9830_19" x="114.03097" y="22.444298" type="priority"/>
    <node id="stop_74C51A8A3D783F40_20" x="114.027829" y="22.444356" type="priority"/>
    <node id="stop_0E2B8E1D544C6889_21" x="114.023959" y="22.444429" type="priority"/>
    <node id="stop_A010FE2C473103A8_22" x="114.021349" y="22.444444" type="priority"/>
    <node id="stop_70FEB409760C77EE_23" x="114.018874" y="22.444092" type="priority"/>
    <node id="stop_A1A1B10F5CE291AC_24" x="114.014384" y="22.443219" type="priority"/>
    <node id="stop_A2C36DF7152EE93F_25" x="114.010416" y="22.441742" type="priority"/>
    <node id="stop_60A4F4A41CD61FAC_26" x="114.007698" y="22.440132" type="priority"/>
    <node id="stop_8F6C8CEB9F17D97D_27" x="114.005593" y="22.438792" type="priority"/>
    <node id="stop_B09E18636F184247_28" x="114.002063" y="22.436581" type="priority"/>
    <node id="stop_B113E1371D5AC497_29" x="114.000373" y="22.435412" type="priority"/>
    <node id="stop_8FA8E142E834CB7C_30" x="113.997883" y="22.433635" type="priority"/>
    <node id="stop_D86A74227012EAD3_31" x="113.994451" y="22.431174" type="priority"/>
    <node id="stop_FFF1B4F48E111EAD_32" x="113.992738" y="22.431571" type="priority"/>
    <node id="stop_87BCEC3D8C6951B2_33" x="113.994736" y="22.434723" type="priority"/>
    <node id="stop_6D66CBA494DECB08_34" x="113.998677" y="22.436706" type="priority"/>
    <node id="stop_6D66CBA494DECB08_1" x="113.998677" y="22.436706" type="priority"/>
    <node id="stop_EF43A73D4C0CC508_2" x="113.994834" y="22.434627" type="priority"/>
    <node id="stop_BB4F24A4C6A9B222_3" x="113.992743" y="22.433621" type="priority"/>
    <node id="stop_F61DB78CF72DB387_4" x="113.992908" y="22.431445" type="priority"/>
    <node id="stop_0BFC5F7FC4A2D431_5" x="113.997787" y="22.43388" type="priority"/>
    <node id="stop_5F616585205DDDF9_6" x="114.001273" y="22.43634" type="priority"/>
    <node id="stop_147D513A708AA741_7" x="114.005297" y="22.438957" type="priority"/>
    <node id="stop_B88640E0CA83F12C_8" x="114.006851" y="22.439816" type="priority"/>
    <node id="stop_A8482B15AD6E89A3_9" x="114.011942" y="22.442788" type="priority"/>
    <node id="stop_6A435795576D92E8_10" x="114.018502" y="22.444345" type="priority"/>
    <node id="stop_48FBCEF0B05599F8_11" x="114.025612" y="22.444661" type="priority"/>
    <node id="stop_1DEFCF90AB170FD7_12" x="114.028346" y="22.444616" type="priority"/>
    <node id="stop_FEE97828AB584E76_13" x="114.03102" y="22.444575" type="priority"/>
    <node id="stop_723EF8D7809D3ADB_14" x="114.035151" y="22.446646" type="priority"/>
    <node id="stop_AB0F79ED382081D0_15" x="114.036445" y="22.445065" type="priority"/>
    <node id="stop_3ECEF3B735084236_16" x="114.064379" y="22.420685" type="priority"/>
    <node id="stop_447C1D79A10C83E2_17" x="114.064392" y="22.419898" type="priority"/>
    <node id="stop_F36F422FDC6B9D3F_18" x="114.132619" y="22.33964" type="priority"/>
    <node id="stop_50E78EB09845863E_19" x="114.141455" y="22.337202" type="priority"/>
    <node id="stop_09A156B1A802D093_20" x="114.148799" y="22.337617" type="priority"/>
    <node id="stop_BD34A7B702373B12_21" x="114.15228" y="22.33853" type="priority"/>
    <node id="stop_E30C2815DA280036_22" x="114.155871" y="22.335838" type="priority"/>
    <node id="stop_C06334CA2AF7814B_23" x="114.159601" y="22.333" type="priority"/>
    <node id="stop_812E72C257C94B73_24" x="114.162566" y="22.330678" type="priority"/>
    <node id="stop_18C138014DF5B0C8_25" x="114.166334" y="22.32777" type="priority"/>
    <node id="stop_0FDE3A87457539BC_26" x="114.168398" y="22.324742" type="priority"/>
    <node id="stop_30B08A7B2B2B623F_27" x="114.169894" y="22.320135" type="priority"/>
    <node id="stop_7ADC6D521E6BECE6_28" x="114.167024" y="22.318792" type="priority"/>
    <node id="stop_E02E10C9135624F9_29" x="114.164385" y="22.318599" type="priority"/>
    <node id="stop_145515B1D2C60CAF_30" x="114.163931" y="22.316269" type="priority"/>
    <node id="stop_EC19750840FFEDDC_31" x="114.163112" y="22.31583" type="priority"/>
</nodes>
