<edges>
    <edge id="edge_inbound_0" from="stop_EC19750840FFEDDC_1" to="stop_B76B249D3D253008_2" priority="1" numLanes="2" speed="13.89"/>
    <edge id="edge_inbound_1" from="stop_B76B249D3D253008_2" to="stop_A7F35DC09E1A1528_3" priority="1" numLanes="2" speed="13.89"/>
    <edge id="edge_inbound_2" from="stop_A7F35DC09E1A1528_3" to="stop_D242B538BA760551_4" priority="1" numLanes="2" speed="13.89"/>
    <edge id="edge_inbound_3" from="stop_D242B538BA760551_4" to="stop_11ED493F674F4888_5" priority="1" numLanes="2" speed="13.89"/>
    <edge id="edge_inbound_4" from="stop_11ED493F674F4888_5" to="stop_BA765A2BCCE21F5C_6" priority="1" numLanes="2" speed="13.89"/>
    <edge id="edge_inbound_5" from="stop_BA765A2BCCE21F5C_6" to="stop_BE510511B0A7344E_7" priority="1" numLanes="2" speed="13.89"/>
    <edge id="edge_inbound_6" from="stop_BE510511B0A7344E_7" to="stop_BE1A19A3705F5B70_8" priority="1" numLanes="2" speed="13.89"/>
    <edge id="edge_inbound_7" from="stop_BE1A19A3705F5B70_8" to="stop_95731C2B3563CF5E_9" priority="1" numLanes="2" speed="13.89"/>
    <edge id="edge_inbound_8" from="stop_95731C2B3563CF5E_9" to="stop_4AFCFC726ADBD5F7_10" priority="1" numLanes="2" speed="13.89"/>
    <edge id="edge_inbound_9" from="stop_4AFCFC726ADBD5F7_10" to="stop_DD9DF46F3BA040EE_11" priority="1" numLanes="2" speed="13.89"/>
    <edge id="edge_inbound_10" from="stop_DD9DF46F3BA040EE_11" to="stop_B7C0A83790F94D99_12" priority="1" numLanes="2" speed="13.89"/>
    <edge id="edge_inbound_11" from="stop_B7C0A83790F94D99_12" to="stop_06566A7FE3C6466A_13" priority="1" numLanes="2" speed="13.89"/>
    <edge id="edge_inbound_12" from="stop_06566A7FE3C6466A_13" to="stop_7DD772B7D55C54B2_14" priority="1" numLanes="2" speed="13.89"/>
    <edge id="edge_inbound_13" from="stop_7DD772B7D55C54B2_14" to="stop_62742CFBA2BE9854_15" priority="1" numLanes="2" speed="13.89"/>
    <edge id="edge_inbound_14" from="stop_62742CFBA2BE9854_15" to="stop_E55FA660A59AB64A_16" priority="1" numLanes="2" speed="13.89"/>
    <edge id="edge_inbound_15" from="stop_E55FA660A59AB64A_16" to="stop_E481F7170B1F6FC3_17" priority="1" numLanes="2" speed="13.89"/>
    <edge id="edge_inbound_16" from="stop_E481F7170B1F6FC3_17" to="stop_14157BA5C06B0B6B_18" priority="1" numLanes="2" speed="13.89"/>
    <edge id="edge_inbound_17" from="stop_14157BA5C06B0B6B_18" to="stop_F63C4B8B958E9830_19" priority="1" numLanes="2" speed="13.89"/>
    <edge id="edge_inbound_18" from="stop_F63C4B8B958E9830_19" to="stop_74C51A8A3D783F40_20" priority="1" numLanes="2" speed="13.89"/>
    <edge id="edge_inbound_19" from="stop_74C51A8A3D783F40_20" to="stop_0E2B8E1D544C6889_21" priority="1" numLanes="2" speed="13.89"/>
    <edge id="edge_inbound_20" from="stop_0E2B8E1D544C6889_21" to="stop_A010FE2C473103A8_22" priority="1" numLanes="2" speed="13.89"/>
    <edge id="edge_inbound_21" from="stop_A010FE2C473103A8_22" to="stop_70FEB409760C77EE_23" priority="1" numLanes="2" speed="13.89"/>
    <edge id="edge_inbound_22" from="stop_70FEB409760C77EE_23" to="stop_A1A1B10F5CE291AC_24" priority="1" numLanes="2" speed="13.89"/>
    <edge id="edge_inbound_23" from="stop_A1A1B10F5CE291AC_24" to="stop_A2C36DF7152EE93F_25" priority="1" numLanes="2" speed="13.89"/>
    <edge id="edge_inbound_24" from="stop_A2C36DF7152EE93F_25" to="stop_60A4F4A41CD61FAC_26" priority="1" numLanes="2" speed="13.89"/>
    <edge id="edge_inbound_25" from="stop_60A4F4A41CD61FAC_26" to="stop_8F6C8CEB9F17D97D_27" priority="1" numLanes="2" speed="13.89"/>
    <edge id="edge_inbound_26" from="stop_8F6C8CEB9F17D97D_27" to="stop_B09E18636F184247_28" priority="1" numLanes="2" speed="13.89"/>
    <edge id="edge_inbound_27" from="stop_B09E18636F184247_28" to="stop_B113E1371D5AC497_29" priority="1" numLanes="2" speed="13.89"/>
    <edge id="edge_inbound_28" from="stop_B113E1371D5AC497_29" to="stop_8FA8E142E834CB7C_30" priority="1" numLanes="2" speed="13.89"/>
    <edge id="edge_inbound_29" from="stop_8FA8E142E834CB7C_30" to="stop_D86A74227012EAD3_31" priority="1" numLanes="2" speed="13.89"/>
    <edge id="edge_inbound_30" from="stop_D86A74227012EAD3_31" to="stop_FFF1B4F48E111EAD_32" priority="1" numLanes="2" speed="13.89"/>
    <edge id="edge_inbound_31" from="stop_FFF1B4F48E111EAD_32" to="stop_87BCEC3D8C6951B2_33" priority="1" numLanes="2" speed="13.89"/>
    <edge id="edge_inbound_32" from="stop_87BCEC3D8C6951B2_33" to="stop_6D66CBA494DECB08_34" priority="1" numLanes="2" speed="13.89"/>
    <edge id="edge_outbound_0" from="stop_6D66CBA494DECB08_1" to="stop_EF43A73D4C0CC508_2" priority="1" numLanes="2" speed="13.89"/>
    <edge id="edge_outbound_1" from="stop_EF43A73D4C0CC508_2" to="stop_BB4F24A4C6A9B222_3" priority="1" numLanes="2" speed="13.89"/>
    <edge id="edge_outbound_2" from="stop_BB4F24A4C6A9B222_3" to="stop_F61DB78CF72DB387_4" priority="1" numLanes="2" speed="13.89"/>
    <edge id="edge_outbound_3" from="stop_F61DB78CF72DB387_4" to="stop_0BFC5F7FC4A2D431_5" priority="1" numLanes="2" speed="13.89"/>
    <edge id="edge_outbound_4" from="stop_0BFC5F7FC4A2D431_5" to="stop_5F616585205DDDF9_6" priority="1" numLanes="2" speed="13.89"/>
    <edge id="edge_outbound_5" from="stop_5F616585205DDDF9_6" to="stop_147D513A708AA741_7" priority="1" numLanes="2" speed="13.89"/>
    <edge id="edge_outbound_6" from="stop_147D513A708AA741_7" to="stop_B88640E0CA83F12C_8" priority="1" numLanes="2" speed="13.89"/>
    <edge id="edge_outbound_7" from="stop_B88640E0CA83F12C_8" to="stop_A8482B15AD6E89A3_9" priority="1" numLanes="2" speed="13.89"/>
    <edge id="edge_outbound_8" from="stop_A8482B15AD6E89A3_9" to="stop_6A435795576D92E8_10" priority="1" numLanes="2" speed="13.89"/>
    <edge id="edge_outbound_9" from="stop_6A435795576D92E8_10" to="stop_48FBCEF0B05599F8_11" priority="1" numLanes="2" speed="13.89"/>
    <edge id="edge_outbound_10" from="stop_48FBCEF0B05599F8_11" to="stop_1DEFCF90AB170FD7_12" priority="1" numLanes="2" speed="13.89"/>
    <edge id="edge_outbound_11" from="stop_1DEFCF90AB170FD7_12" to="stop_FEE97828AB584E76_13" priority="1" numLanes="2" speed="13.89"/>
    <edge id="edge_outbound_12" from="stop_FEE97828AB584E76_13" to="stop_723EF8D7809D3ADB_14" priority="1" numLanes="2" speed="13.89"/>
    <edge id="edge_outbound_13" from="stop_723EF8D7809D3ADB_14" to="stop_AB0F79ED382081D0_15" priority="1" numLanes="2" speed="13.89"/>
    <edge id="edge_outbound_14" from="stop_AB0F79ED382081D0_15" to="stop_3ECEF3B735084236_16" priority="1" numLanes="2" speed="13.89"/>
    <edge id="edge_outbound_15" from="stop_3ECEF3B735084236_16" to="stop_447C1D79A10C83E2_17" priority="1" numLanes="2" speed="13.89"/>
    <edge id="edge_outbound_16" from="stop_447C1D79A10C83E2_17" to="stop_F36F422FDC6B9D3F_18" priority="1" numLanes="2" speed="13.89"/>
    <edge id="edge_outbound_17" from="stop_F36F422FDC6B9D3F_18" to="stop_50E78EB09845863E_19" priority="1" numLanes="2" speed="13.89"/>
    <edge id="edge_outbound_18" from="stop_50E78EB09845863E_19" to="stop_09A156B1A802D093_20" priority="1" numLanes="2" speed="13.89"/>
    <edge id="edge_outbound_19" from="stop_09A156B1A802D093_20" to="stop_BD34A7B702373B12_21" priority="1" numLanes="2" speed="13.89"/>
    <edge id="edge_outbound_20" from="stop_BD34A7B702373B12_21" to="stop_E30C2815DA280036_22" priority="1" numLanes="2" speed="13.89"/>
    <edge id="edge_outbound_21" from="stop_E30C2815DA280036_22" to="stop_C06334CA2AF7814B_23" priority="1" numLanes="2" speed="13.89"/>
    <edge id="edge_outbound_22" from="stop_C06334CA2AF7814B_23" to="stop_812E72C257C94B73_24" priority="1" numLanes="2" speed="13.89"/>
    <edge id="edge_outbound_23" from="stop_812E72C257C94B73_24" to="stop_18C138014DF5B0C8_25" priority="1" numLanes="2" speed="13.89"/>
    <edge id="edge_outbound_24" from="stop_18C138014DF5B0C8_25" to="stop_0FDE3A87457539BC_26" priority="1" numLanes="2" speed="13.89"/>
    <edge id="edge_outbound_25" from="stop_0FDE3A87457539BC_26" to="stop_30B08A7B2B2B623F_27" priority="1" numLanes="2" speed="13.89"/>
    <edge id="edge_outbound_26" from="stop_30B08A7B2B2B623F_27" to="stop_7ADC6D521E6BECE6_28" priority="1" numLanes="2" speed="13.89"/>
    <edge id="edge_outbound_27" from="stop_7ADC6D521E6BECE6_28" to="stop_E02E10C9135624F9_29" priority="1" numLanes="2" speed="13.89"/>
    <edge id="edge_outbound_28" from="stop_E02E10C9135624F9_29" to="stop_145515B1D2C60CAF_30" priority="1" numLanes="2" speed="13.89"/>
    <edge id="edge_outbound_29" from="stop_145515B1D2C60CAF_30" to="stop_EC19750840FFEDDC_31" priority="1" numLanes="2" speed="13.89"/>
</edges>
